
     RDKit          3D

 64 67  0  0  0  0  0  0  0  0999 V2000
  130.6500  136.2630  136.1420 C   0  0  0  0  0  0  0  0  0  0  0  0
  129.1360  136.9260  132.7200 C   0  0  0  0  0  0  0  0  0  0  0  0
  129.7510  137.1230  133.9420 C   0  0  0  0  0  0  0  0  0  0  0  0
  129.9670  136.0490  134.7910 C   0  0  0  0  0  0  0  0  0  0  0  0
  129.5750  134.7780  134.4110 C   0  0  0  0  0  0  0  0  0  0  0  0
  125.0890  137.2960  131.5730 C   0  0  0  0  0  0  0  0  0  0  0  0
  125.7180  135.9370  131.8670 C   0  0  0  0  0  0  0  0  0  0  0  0
  126.7780  135.5640  130.8420 C   0  0  0  0  0  0  0  0  0  0  0  0
  127.7070  135.0210  128.9540 C   0  0  0  0  0  0  0  0  0  0  0  0
  128.6910  135.1000  129.8950 C   0  0  0  0  0  0  0  0  0  0  0  0
  128.7440  135.6540  132.3390 C   0  0  0  0  0  0  0  0  0  0  0  0
  128.9600  134.5820  133.1880 C   0  0  0  0  0  0  0  0  0  0  0  0
  129.6960  136.2890  137.3350 C   0  0  0  0  0  0  0  0  0  0  0  0
  128.3370  138.3780  137.0220 C   0  0  0  0  0  0  0  0  0  0  0  0
  127.4350  141.4300  135.1310 C   0  0  0  0  0  0  0  0  0  0  0  0
  127.7610  142.7720  135.1020 C   0  0  0  0  0  0  0  0  0  0  0  0
  128.1920  143.3510  133.9240 C   0  0  0  0  0  0  0  0  0  0  0  0
  128.2970  142.5830  132.7800 C   0  0  0  0  0  0  0  0  0  0  0  0
  127.9740  141.2370  132.8110 C   0  0  0  0  0  0  0  0  0  0  0  0
  127.5400  140.6580  133.9890 C   0  0  0  0  0  0  0  0  0  0  0  0
  128.7750  143.2280  131.4840 C   0  0  0  0  0  0  0  0  0  0  0  0
  130.0290  134.8390  129.4820 C   0  0  0  0  0  0  0  0  0  0  0  0
  130.2710  134.5110  128.1550 C   0  0  0  0  0  0  0  0  0  0  0  0
  128.0370  134.6750  127.6210 C   0  0  0  0  0  0  0  0  0  0  0  0
  126.9230  134.5820  126.5830 C   0  0  0  0  0  0  0  0  0  0  0  0
  131.6960  134.2260  127.6940 C   0  0  0  0  0  0  0  0  0  0  0  0
  126.5340  135.3090  129.5600 N   0  0  0  0  0  0  0  0  0  0  0  0
  128.0890  135.4500  131.0580 N   0  0  0  0  0  0  0  0  0  0  0  0
  128.4490  136.9340  136.9770 N   0  0  0  0  0  0  0  0  0  0  0  0
  127.0770  138.9970  136.6510 N   0  0  0  0  0  0  0  0  0  0  0  0
  129.2860  134.4360  127.2710 N   0  0  0  0  0  0  0  0  0  0  0  0
  129.2600  139.0370  137.3580 O   0  0  0  0  0  0  0  0  0  0  0  0
  125.4790  141.0490  136.9490 O   0  0  0  0  0  0  0  0  0  0  0  0
  127.5290  141.3050  137.8350 O   0  0  0  0  0  0  0  0  0  0  0  0
  126.8710  140.6890  136.6840 S   0  0  0  0  0  0  0  0  0  0  0  0
  131.3711  135.4467  136.2960 H   0  0  0  0  0  0  0  0  0  0  0  0
  131.1260  137.2537  136.0994 H   0  0  0  0  0  0  0  0  0  0  0  0
  128.9579  137.7800  132.0500 H   0  0  0  0  0  0  0  0  0  0  0  0
  130.0692  138.1327  134.2409 H   0  0  0  0  0  0  0  0  0  0  0  0
  129.7523  133.9239  135.0811 H   0  0  0  0  0  0  0  0  0  0  0  0
  124.8540  137.8038  132.5200 H   0  0  0  0  0  0  0  0  0  0  0  0
  125.7949  137.9091  130.9935 H   0  0  0  0  0  0  0  0  0  0  0  0
  124.1648  137.1546  130.9935 H   0  0  0  0  0  0  0  0  0  0  0  0
  124.9287  135.1709  131.8560 H   0  0  0  0  0  0  0  0  0  0  0  0
  126.2043  135.9945  132.8520 H   0  0  0  0  0  0  0  0  0  0  0  0
  128.6418  133.5723  132.8892 H   0  0  0  0  0  0  0  0  0  0  0  0
  129.4902  135.2571  137.6558 H   0  0  0  0  0  0  0  0  0  0  0  0
  130.1661  136.8552  138.1526 H   0  0  0  0  0  0  0  0  0  0  0  0
  127.6775  143.3789  136.0156 H   0  0  0  0  0  0  0  0  0  0  0  0
  128.4507  144.4198  133.8968 H   0  0  0  0  0  0  0  0  0  0  0  0
  128.0627  140.6287  131.8988 H   0  0  0  0  0  0  0  0  0  0  0  0
  127.2798  139.5896  134.0174 H   0  0  0  0  0  0  0  0  0  0  0  0
  129.4149  144.0915  131.7184 H   0  0  0  0  0  0  0  0  0  0  0  0
  129.3491  142.4942  130.8992 H   0  0  0  0  0  0  0  0  0  0  0  0
  127.9059  143.5637  130.8992 H   0  0  0  0  0  0  0  0  0  0  0  0
  130.8575  134.8964  130.2033 H   0  0  0  0  0  0  0  0  0  0  0  0
  125.9520  134.5009  127.0935 H   0  0  0  0  0  0  0  0  0  0  0  0
  126.9321  135.4840  125.9535 H   0  0  0  0  0  0  0  0  0  0  0  0
  127.0816  133.6940  125.9535 H   0  0  0  0  0  0  0  0  0  0  0  0
  132.3462  134.0960  128.5717 H   0  0  0  0  0  0  0  0  0  0  0  0
  131.7088  133.3075  127.0889 H   0  0  0  0  0  0  0  0  0  0  0  0
  132.0611  135.0689  127.0889 H   0  0  0  0  0  0  0  0  0  0  0  0
  127.6401  136.3647  136.6898 H   0  0  0  0  0  0  0  0  0  0  0  0
  126.2893  138.3999  136.3611 H   0  0  0  0  0  0  0  0  0  0  0  0
 25 24  1  0
 31 24  1  0
 31 23  2  0
 24  9  2  0
 26 23  1  0
 23 22  1  0
  9 27  1  0
  9 10  1  0
 27  8  2  0
 22 10  2  0
 10 28  1  0
  8 28  1  0
  8  7  1  0
 28 11  1  0
  6  7  1  0
 21 18  1  0
 11  2  1  0
 11 12  2  0
  2  3  2  0
 19 18  2  0
 19 20  1  0
 18 17  1  0
 12  5  1  0
  3  4  1  0
 20 15  2  0
 17 16  2  0
  5  4  2  0
  4  1  1  0
 15 16  1  0
 15 35  1  0
  1 13  1  0
 30 35  1  0
 30 14  1  0
 35 33  2  0
 35 34  2  0
 29 14  1  0
 29 13  1  0
 14 32  2  0
  1 36  1  0
  1 37  1  0
  2 38  1  0
  3 39  1  0
  5 40  1  0
  6 41  1  0
  6 42  1  0
  6 43  1  0
  7 44  1  0
  7 45  1  0
 12 46  1  0
 13 47  1  0
 13 48  1  0
 16 49  1  0
 17 50  1  0
 19 51  1  0
 20 52  1  0
 21 53  1  0
 21 54  1  0
 21 55  1  0
 22 56  1  0
 25 57  1  0
 25 58  1  0
 25 59  1  0
 26 60  1  0
 26 61  1  0
 26 62  1  0
 29 63  1  0
 30 64  1  0
M  END
$$$$
