E:\chatgpt\pparg_dinp_md\dinp_pose.pdb
     RDKit          3D

 72 72  0  0  0  0  0  0  0  0999 V2000
   55.5190   24.2260    3.6000 C   0  0  0  0  0  0  0  0  0  0  0  0
   55.2000   24.7240    4.8910 C   0  0  0  0  0  0  0  0  0  0  0  0
   54.6110   23.3580    2.9630 C   0  0  0  0  0  0  0  0  0  0  0  0
   54.0270   24.2950    5.5310 C   0  0  0  0  0  0  0  0  0  0  0  0
   53.4360   22.9620    3.6020 C   0  0  0  0  0  0  0  0  0  0  0  0
   53.1500   23.4190    4.8890 C   0  0  0  0  0  0  0  0  0  0  0  0
   56.8180   24.5150    2.9470 C   0  0  0  0  0  0  0  0  0  0  0  0
   56.8840   25.3650    2.0170 O   0  0  0  0  0  0  0  0  0  0  0  0
   57.9570   23.8000    3.3290 O   0  0  0  0  0  0  0  0  0  0  0  0
   59.1630   23.7870    2.5760 C   0  0  0  0  0  0  0  0  0  0  0  0
   59.1120   22.6170    1.5930 C   0  0  0  0  0  0  0  0  0  0  0  0
   58.5150   22.9940    0.2310 C   0  0  0  0  0  0  0  0  0  0  0  0
   57.1940   22.2590   -0.0550 C   0  0  0  0  0  0  0  0  0  0  0  0
   57.3040   21.3020   -1.2530 C   0  0  0  0  0  0  0  0  0  0  0  0
   58.6200   21.4960   -2.0330 C   0  0  0  0  0  0  0  0  0  0  0  0
   59.3500   20.1840   -2.4020 C   0  0  0  0  0  0  0  0  0  0  0  0
   59.4280   19.9610   -3.9180 C   0  0  0  0  0  0  0  0  0  0  0  0
   60.7410   20.0870   -1.7600 C   0  0  0  0  0  0  0  0  0  0  0  0
   56.0310   25.7340    5.5660 C   0  0  0  0  0  0  0  0  0  0  0  0
   56.7990   25.3850    6.5040 O   0  0  0  0  0  0  0  0  0  0  0  0
   55.9450   27.0730    5.1740 O   0  0  0  0  0  0  0  0  0  0  0  0
   56.2300   28.1580    6.0530 C   0  0  0  0  0  0  0  0  0  0  0  0
   54.9570   28.9640    6.3120 C   0  0  0  0  0  0  0  0  0  0  0  0
   53.7520   28.0370    6.5290 C   0  0  0  0  0  0  0  0  0  0  0  0
   52.5310   28.5100    5.7300 C   0  0  0  0  0  0  0  0  0  0  0  0
   51.2910   27.6380    5.9950 C   0  0  0  0  0  0  0  0  0  0  0  0
   51.4340   26.7150    7.2280 C   0  0  0  0  0  0  0  0  0  0  0  0
   50.1850   26.7080    8.1410 C   0  0  0  0  0  0  0  0  0  0  0  0
   49.1950   27.7920    7.6920 C   0  0  0  0  0  0  0  0  0  0  0  0
   49.4890   25.3400    8.1550 C   0  0  0  0  0  0  0  0  0  0  0  0
   54.8308   22.9883    1.9506 H   0  0  0  0  0  0  0  0  0  0  0  0
   53.7970   24.6516    6.5459 H   0  0  0  0  0  0  0  0  0  0  0  0
   52.7333   22.2880    3.0902 H   0  0  0  0  0  0  0  0  0  0  0  0
   52.2326   23.0887    5.3982 H   0  0  0  0  0  0  0  0  0  0  0  0
   59.2643   24.7320    2.0223 H   0  0  0  0  0  0  0  0  0  0  0  0
   60.0253   23.6744    3.2496 H   0  0  0  0  0  0  0  0  0  0  0  0
   60.1364   22.2487    1.4352 H   0  0  0  0  0  0  0  0  0  0  0  0
   58.4587   21.8495    2.0338 H   0  0  0  0  0  0  0  0  0  0  0  0
   58.3266   24.0776    0.2158 H   0  0  0  0  0  0  0  0  0  0  0  0
   59.2372   22.6991   -0.5445 H   0  0  0  0  0  0  0  0  0  0  0  0
   56.9124   21.6788    0.8361 H   0  0  0  0  0  0  0  0  0  0  0  0
   56.4345   23.0164   -0.2991 H   0  0  0  0  0  0  0  0  0  0  0  0
   57.2596   20.2664   -0.8847 H   0  0  0  0  0  0  0  0  0  0  0  0
   56.4703   21.5191   -1.9370 H   0  0  0  0  0  0  0  0  0  0  0  0
   58.3904   22.0343   -2.9644 H   0  0  0  0  0  0  0  0  0  0  0  0
   59.2969   22.0525   -1.3680 H   0  0  0  0  0  0  0  0  0  0  0  0
   58.7360   19.3734   -1.9826 H   0  0  0  0  0  0  0  0  0  0  0  0
   59.7850   18.9404   -4.1206 H   0  0  0  0  0  0  0  0  0  0  0  0
   58.4297   20.0948   -4.3601 H   0  0  0  0  0  0  0  0  0  0  0  0
   60.1253   20.6879   -4.3601 H   0  0  0  0  0  0  0  0  0  0  0  0
   60.6406   20.0940   -0.6646 H   0  0  0  0  0  0  0  0  0  0  0  0
   61.2271   19.1528   -2.0777 H   0  0  0  0  0  0  0  0  0  0  0  0
   61.3521   20.9447   -2.0777 H   0  0  0  0  0  0  0  0  0  0  0  0
   56.6132   27.7646    7.0061 H   0  0  0  0  0  0  0  0  0  0  0  0
   56.9850   28.8108    5.5906 H   0  0  0  0  0  0  0  0  0  0  0  0
   55.1002   29.5836    7.2095 H   0  0  0  0  0  0  0  0  0  0  0  0
   54.7585   29.5964    5.4341 H   0  0  0  0  0  0  0  0  0  0  0  0
   54.0197   27.0204    6.2052 H   0  0  0  0  0  0  0  0  0  0  0  0
   53.4928   28.0507    7.5979 H   0  0  0  0  0  0  0  0  0  0  0  0
   52.7713   28.4679    4.6574 H   0  0  0  0  0  0  0  0  0  0  0  0
   52.2964   29.5368    6.0471 H   0  0  0  0  0  0  0  0  0  0  0  0
   50.4278   28.3007    6.1552 H   0  0  0  0  0  0  0  0  0  0  0  0
   51.1618   26.9866    5.1181 H   0  0  0  0  0  0  0  0  0  0  0  0
   51.6137   25.6885    6.8757 H   0  0  0  0  0  0  0  0  0  0  0  0
   52.2710   27.1026    7.8273 H   0  0  0  0  0  0  0  0  0  0  0  0
   50.5262   26.9197    9.1651 H   0  0  0  0  0  0  0  0  0  0  0  0
   48.7540   28.2749    8.5765 H   0  0  0  0  0  0  0  0  0  0  0  0
   49.7240   28.5446    7.0889 H   0  0  0  0  0  0  0  0  0  0  0  0
   48.3976   27.3332    7.0889 H   0  0  0  0  0  0  0  0  0  0  0  0
   49.3270   25.0216    9.1954 H   0  0  0  0  0  0  0  0  0  0  0  0
   48.5201   25.4163    7.6398 H   0  0  0  0  0  0  0  0  0  0  0  0
   50.1211   24.6017    7.6398 H   0  0  0  0  0  0  0  0  0  0  0  0
  1  2  1  0
  2  4  2  0
  2 19  1  0
  3  1  2  0
  3  5  1  0
  5  6  2  0
  6  4  1  0
  7  9  1  0
  7  1  1  0
  8  7  2  0
 10  9  1  0
 11 10  1  0
 12 11  1  0
 13 12  1  0
 14 13  1  0
 15 14  1  0
 16 15  1  0
 16 18  1  0
 17 16  1  0
 19 20  2  0
 21 19  1  0
 21 22  1  0
 22 23  1  0
 23 24  1  0
 25 26  1  0
 25 24  1  0
 26 27  1  0
 27 28  1  0
 28 30  1  0
 29 28  1  0
  3 31  1  0
  4 32  1  0
  5 33  1  0
  6 34  1  0
 10 35  1  0
 10 36  1  0
 11 37  1  0
 11 38  1  0
 12 39  1  0
 12 40  1  0
 13 41  1  0
 13 42  1  0
 14 43  1  0
 14 44  1  0
 15 45  1  0
 15 46  1  0
 16 47  1  0
 17 48  1  0
 17 49  1  0
 17 50  1  0
 18 51  1  0
 18 52  1  0
 18 53  1  0
 22 54  1  0
 22 55  1  0
 23 56  1  0
 23 57  1  0
 24 58  1  0
 24 59  1  0
 25 60  1  0
 25 61  1  0
 26 62  1  0
 26 63  1  0
 27 64  1  0
 27 65  1  0
 28 66  1  0
 29 67  1  0
 29 68  1  0
 29 69  1  0
 30 70  1  0
 30 71  1  0
 30 72  1  0
M  END
