E:\chatgpt\pparg_dinp_md\dinp_pose.pdb
 OpenBabel09092620213D

 30 30  0  0  0  0  0  0  0  0999 V2000
   55.5190   24.2260    3.6000 C   0  0  0  0  0  0  0  0  0  0  0  0
   55.2000   24.7240    4.8910 C   0  0  0  0  0  0  0  0  0  0  0  0
   54.6110   23.3580    2.9630 C   0  0  0  0  0  0  0  0  0  0  0  0
   54.0270   24.2950    5.5310 C   0  0  0  0  0  0  0  0  0  0  0  0
   53.4360   22.9620    3.6020 C   0  0  0  0  0  0  0  0  0  0  0  0
   53.1500   23.4190    4.8890 C   0  0  0  0  0  0  0  0  0  0  0  0
   56.8180   24.5150    2.9470 C   0  0  0  0  0  0  0  0  0  0  0  0
   56.8840   25.3650    2.0170 O   0  0  0  0  0  0  0  0  0  0  0  0
   57.9570   23.8000    3.3290 O   0  0  0  0  0  0  0  0  0  0  0  0
   59.1630   23.7870    2.5760 C   0  0  0  0  0  0  0  0  0  0  0  0
   59.1120   22.6170    1.5930 C   0  0  0  0  0  0  0  0  0  0  0  0
   58.5150   22.9940    0.2310 C   0  0  0  0  0  0  0  0  0  0  0  0
   57.1940   22.2590   -0.0550 C   0  0  0  0  0  0  0  0  0  0  0  0
   57.3040   21.3020   -1.2530 C   0  0  0  0  0  0  0  0  0  0  0  0
   58.6200   21.4960   -2.0330 C   0  0  0  0  0  0  0  0  0  0  0  0
   59.3500   20.1840   -2.4020 C   0  0  0  0  0  0  0  0  0  0  0  0
   59.4280   19.9610   -3.9180 C   0  0  0  0  0  0  0  0  0  0  0  0
   60.7410   20.0870   -1.7600 C   0  0  0  0  0  0  0  0  0  0  0  0
   56.0310   25.7340    5.5660 C   0  0  0  0  0  0  0  0  0  0  0  0
   56.7990   25.3850    6.5040 O   0  0  0  0  0  0  0  0  0  0  0  0
   55.9450   27.0730    5.1740 O   0  0  0  0  0  0  0  0  0  0  0  0
   56.2300   28.1580    6.0530 C   0  0  0  0  0  0  0  0  0  0  0  0
   54.9570   28.9640    6.3120 C   0  0  0  0  0  0  0  0  0  0  0  0
   53.7520   28.0370    6.5290 C   0  0  0  0  0  0  0  0  0  0  0  0
   52.5310   28.5100    5.7300 C   0  0  0  0  0  0  0  0  0  0  0  0
   51.2910   27.6380    5.9950 C   0  0  0  0  0  0  0  0  0  0  0  0
   51.4340   26.7150    7.2280 C   0  0  0  0  0  0  0  0  0  0  0  0
   50.1850   26.7080    8.1410 C   0  0  0  0  0  0  0  0  0  0  0  0
   49.1950   27.7920    7.6920 C   0  0  0  0  0  0  0  0  0  0  0  0
   49.4890   25.3400    8.1550 C   0  0  0  0  0  0  0  0  0  0  0  0
  1  2  1  0  0  0  0
  2  4  2  0  0  0  0
  2 19  1  0  0  0  0
  3  1  2  0  0  0  0
  3  5  1  0  0  0  0
  5  6  2  0  0  0  0
  6  4  1  0  0  0  0
  7  9  1  0  0  0  0
  7  1  1  0  0  0  0
  8  7  2  0  0  0  0
 10  9  1  0  0  0  0
 11 10  1  0  0  0  0
 12 11  1  0  0  0  0
 13 12  1  0  0  0  0
 14 13  1  0  0  0  0
 15 14  1  0  0  0  0
 16 15  1  0  0  0  0
 16 18  1  0  0  0  0
 17 16  1  0  0  0  0
 19 20  2  0  0  0  0
 21 19  1  0  0  0  0
 21 22  1  0  0  0  0
 22 23  1  0  0  0  0
 23 24  1  0  0  0  0
 25 26  1  0  0  0  0
 25 24  1  0  0  0  0
 26 27  1  0  0  0  0
 27 28  1  0  0  0  0
 28 30  1  0  0  0  0
 29 28  1  0  0  0  0
M  END
$$$$
