
     RDKit          3D

 72 72  0  0  0  0  0  0  0  0999 V2000
   -0.8677    4.4230    0.9754 C   0  0  0  0  0  0  0  0  0  0  0  0
   -2.2405    3.7575    0.8448 C   0  0  0  0  0  0  0  0  0  0  0  0
   -3.2931    4.6066    1.5590 C   0  0  0  0  0  0  0  0  0  0  0  0
   -2.1761    2.3179    1.3901 C   0  0  0  0  0  0  0  0  0  0  0  0
   -3.4484    1.5069    1.1211 C   0  0  0  0  0  0  0  0  0  0  0  0
   -3.3855    0.0734    1.6621 C   0  0  0  0  0  0  0  0  0  0  0  0
   -2.3097   -0.7813    0.9903 C   0  0  0  0  0  0  0  0  0  0  0  0
   -2.3898   -2.2436    1.4366 C   0  0  0  0  0  0  0  0  0  0  0  0
   -1.2738   -3.0907    0.8294 C   0  0  0  0  0  0  0  0  0  0  0  0
   -1.4126   -3.1022   -0.5971 O   0  0  0  0  0  0  0  0  0  0  0  0
   -0.4302   -3.7707   -1.2470 C   0  0  0  0  0  0  0  0  0  0  0  0
    0.5323   -4.3270   -0.7468 O   0  0  0  0  0  0  0  0  0  0  0  0
   -0.7778   -3.8608   -2.6778 C   0  0  0  0  0  0  0  0  0  0  0  0
   -0.7016   -5.1276   -3.2757 C   0  0  0  0  0  0  0  0  0  0  0  0
   -1.0924   -5.3012   -4.6049 C   0  0  0  0  0  0  0  0  0  0  0  0
   -1.5617   -4.2147   -5.3428 C   0  0  0  0  0  0  0  0  0  0  0  0
   -1.6208   -2.9476   -4.7601 C   0  0  0  0  0  0  0  0  0  0  0  0
   -1.2100   -2.7645   -3.4316 C   0  0  0  0  0  0  0  0  0  0  0  0
   -1.2180   -1.3870   -2.9102 C   0  0  0  0  0  0  0  0  0  0  0  0
   -2.1657   -0.6276   -3.0110 O   0  0  0  0  0  0  0  0  0  0  0  0
    0.0190   -1.0987   -2.4398 O   0  0  0  0  0  0  0  0  0  0  0  0
    0.1985    0.2631   -2.0311 C   0  0  0  0  0  0  0  0  0  0  0  0
    1.6918    0.5599   -1.9103 C   0  0  0  0  0  0  0  0  0  0  0  0
    2.4533   -0.3564   -0.9462 C   0  0  0  0  0  0  0  0  0  0  0  0
    1.9565   -0.3456    0.5016 C   0  0  0  0  0  0  0  0  0  0  0  0
    1.9360    1.0240    1.1856 C   0  0  0  0  0  0  0  0  0  0  0  0
    3.2813    1.7567    1.2429 C   0  0  0  0  0  0  0  0  0  0  0  0
    4.4272    0.9963    1.9364 C   0  0  0  0  0  0  0  0  0  0  0  0
    4.1036    0.6565    3.3917 C   0  0  0  0  0  0  0  0  0  0  0  0
    5.7111    1.8284    1.8733 C   0  0  0  0  0  0  0  0  0  0  0  0
   -0.8875    5.4405    0.5707 H   0  0  0  0  0  0  0  0  0  0  0  0
   -0.1085    3.8614    0.4211 H   0  0  0  0  0  0  0  0  0  0  0  0
   -0.5512    4.4800    2.0225 H   0  0  0  0  0  0  0  0  0  0  0  0
   -2.4942    3.7199   -0.2221 H   0  0  0  0  0  0  0  0  0  0  0  0
   -3.2657    5.6412    1.2000 H   0  0  0  0  0  0  0  0  0  0  0  0
   -4.3032    4.2291    1.3754 H   0  0  0  0  0  0  0  0  0  0  0  0
   -3.1245    4.6206    2.6411 H   0  0  0  0  0  0  0  0  0  0  0  0
   -1.9749    2.3368    2.4686 H   0  0  0  0  0  0  0  0  0  0  0  0
   -1.3251    1.8141    0.9188 H   0  0  0  0  0  0  0  0  0  0  0  0
   -3.6472    1.4811    0.0428 H   0  0  0  0  0  0  0  0  0  0  0  0
   -4.3071    1.9986    1.5910 H   0  0  0  0  0  0  0  0  0  0  0  0
   -3.2160    0.0966    2.7454 H   0  0  0  0  0  0  0  0  0  0  0  0
   -4.3659   -0.3933    1.5051 H   0  0  0  0  0  0  0  0  0  0  0  0
   -2.4242   -0.7194   -0.0973 H   0  0  0  0  0  0  0  0  0  0  0  0
   -1.3183   -0.3901    1.2399 H   0  0  0  0  0  0  0  0  0  0  0  0
   -2.3297   -2.3020    2.5295 H   0  0  0  0  0  0  0  0  0  0  0  0
   -3.3608   -2.6536    1.1333 H   0  0  0  0  0  0  0  0  0  0  0  0
   -1.3569   -4.1178    1.2032 H   0  0  0  0  0  0  0  0  0  0  0  0
   -0.2953   -2.6862    1.1106 H   0  0  0  0  0  0  0  0  0  0  0  0
   -0.3519   -5.9837   -2.7010 H   0  0  0  0  0  0  0  0  0  0  0  0
   -1.0390   -6.2869   -5.0622 H   0  0  0  0  0  0  0  0  0  0  0  0
   -1.8737   -4.3527   -6.3758 H   0  0  0  0  0  0  0  0  0  0  0  0
   -1.9730   -2.1001   -5.3458 H   0  0  0  0  0  0  0  0  0  0  0  0
   -0.3115    0.4217   -1.0764 H   0  0  0  0  0  0  0  0  0  0  0  0
   -0.2324    0.9432   -2.7758 H   0  0  0  0  0  0  0  0  0  0  0  0
    2.1485    0.4404   -2.9010 H   0  0  0  0  0  0  0  0  0  0  0  0
    1.8305    1.6085   -1.6256 H   0  0  0  0  0  0  0  0  0  0  0  0
    3.5141   -0.0802   -0.9693 H   0  0  0  0  0  0  0  0  0  0  0  0
    2.4069   -1.3878   -1.3178 H   0  0  0  0  0  0  0  0  0  0  0  0
    2.5727   -1.0380    1.0871 H   0  0  0  0  0  0  0  0  0  0  0  0
    0.9439   -0.7598    0.5324 H   0  0  0  0  0  0  0  0  0  0  0  0
    1.2143    1.6718    0.6748 H   0  0  0  0  0  0  0  0  0  0  0  0
    1.5445    0.8997    2.2022 H   0  0  0  0  0  0  0  0  0  0  0  0
    3.5892    2.0161    0.2225 H   0  0  0  0  0  0  0  0  0  0  0  0
    3.1217    2.7133    1.7582 H   0  0  0  0  0  0  0  0  0  0  0  0
    4.6181    0.0604    1.3985 H   0  0  0  0  0  0  0  0  0  0  0  0
    3.2605   -0.0375    3.4611 H   0  0  0  0  0  0  0  0  0  0  0  0
    3.8533    1.5565    3.9634 H   0  0  0  0  0  0  0  0  0  0  0  0
    4.9596    0.1755    3.8775 H   0  0  0  0  0  0  0  0  0  0  0  0
    5.9810    2.0489    0.8350 H   0  0  0  0  0  0  0  0  0  0  0  0
    5.5956    2.7798    2.4037 H   0  0  0  0  0  0  0  0  0  0  0  0
    6.5484    1.2873    2.3268 H   0  0  0  0  0  0  0  0  0  0  0  0
  1  2  1  0
  2  3  1  0
  2  4  1  0
  4  5  1  0
  5  6  1  0
  6  7  1  0
  7  8  1  0
  8  9  1  0
  9 10  1  0
 10 11  1  0
 11 12  2  0
 11 13  1  0
 13 14  2  0
 14 15  1  0
 15 16  2  0
 16 17  1  0
 17 18  2  0
 18 19  1  0
 19 20  2  0
 19 21  1  0
 21 22  1  0
 22 23  1  0
 23 24  1  0
 24 25  1  0
 25 26  1  0
 26 27  1  0
 27 28  1  0
 28 29  1  0
 28 30  1  0
 18 13  1  0
  1 31  1  0
  1 32  1  0
  1 33  1  0
  2 34  1  0
  3 35  1  0
  3 36  1  0
  3 37  1  0
  4 38  1  0
  4 39  1  0
  5 40  1  0
  5 41  1  0
  6 42  1  0
  6 43  1  0
  7 44  1  0
  7 45  1  0
  8 46  1  0
  8 47  1  0
  9 48  1  0
  9 49  1  0
 14 50  1  0
 15 51  1  0
 16 52  1  0
 17 53  1  0
 22 54  1  0
 22 55  1  0
 23 56  1  0
 23 57  1  0
 24 58  1  0
 24 59  1  0
 25 60  1  0
 25 61  1  0
 26 62  1  0
 26 63  1  0
 27 64  1  0
 27 65  1  0
 28 66  1  0
 29 67  1  0
 29 68  1  0
 29 69  1  0
 30 70  1  0
 30 71  1  0
 30 72  1  0
M  END
>  <PubChemCID>  (1) 
590836

>  <3D_method>  (1) 
ETKDGv3+MMFF94

>  <energy>  (1) 
26.58854110202272

$$$$
