ULC
     RDKit          3D

 43 45  0  0  0  0  0  0  0  0999 V2000
    8.8200  -11.1980   -2.1430 C   0  0  0  0  0  0  0  0  0  0  0  0
    8.6340  -16.8520   -3.5160 C   0  0  0  0  0  0  0  0  0  0  0  0
    9.7610  -18.9710   -3.2730 C   0  0  0  0  0  0  0  0  0  0  0  0
    9.4500  -19.5970   -6.0800 C   0  0  0  0  0  0  0  0  0  0  0  0
    8.8270  -18.3160   -5.5430 C   0  0  0  0  0  0  0  0  0  0  0  0
    9.9780  -18.6700   -1.9310 C   0  0  0  0  0  0  0  0  0  0  0  0
    6.1610  -13.7250    0.5610 C   0  0  0  0  0  0  0  0  0  0  0  0
    8.0980  -12.9460   -0.7020 C   0  0  0  0  0  0  0  0  0  0  0  0
   10.7350  -11.2770    0.8900 O   0  0  0  0  0  0  0  0  0  0  0  0
    7.3980  -15.2450   -0.8070 C   0  0  0  0  0  0  0  0  0  0  0  0
    8.8630  -16.5710   -2.1780 C   0  0  0  0  0  0  0  0  0  0  0  0
    9.0770  -18.0480   -4.0790 C   0  0  0  0  0  0  0  0  0  0  0  0
   10.6760  -20.0320   -5.3050 C   0  0  0  0  0  0  0  0  0  0  0  0
    9.5350  -17.4810   -1.3820 C   0  0  0  0  0  0  0  0  0  0  0  0
   11.5610  -10.1470    0.6250 C   0  0  0  0  0  0  0  0  0  0  0  0
   10.3000  -20.2480   -3.8630 C   0  0  0  0  0  0  0  0  0  0  0  0
    9.8310  -11.6180   -0.0440 C   0  0  0  0  0  0  0  0  0  0  0  0
    9.7800  -10.8600   -1.2090 C   0  0  0  0  0  0  0  0  0  0  0  0
    7.9540  -12.2570   -1.9040 C   0  0  0  0  0  0  0  0  0  0  0  0
    7.2570  -13.9990   -0.3610 N   0  0  0  0  0  0  0  0  0  0  0  0
    9.0180  -12.6330    0.2090 N   0  0  0  0  0  0  0  0  0  0  0  0
    8.4720  -15.3260   -1.6490 O   0  0  0  0  0  0  0  0  0  0  0  0
    6.4360  -16.5320   -0.4350 S   0  0  0  0  0  0  0  0  0  0  0  0
    4.9200    1.6180   -2.4460 H   0  0  0  0  0  0  0  0  0  0  0  0
   -1.5380   -0.9380    1.2050 H   0  0  0  0  0  0  0  0  0  0  0  0
   -5.6470   -3.1940    0.3280 H   0  0  0  0  0  0  0  0  0  0  0  0
   -5.8590   -1.6580    1.2070 H   0  0  0  0  0  0  0  0  0  0  0  0
   -3.5470   -2.3450    1.4670 H   0  0  0  0  0  0  0  0  0  0  0  0
   -3.3790   -2.6140   -0.2820 H   0  0  0  0  0  0  0  0  0  0  0  0
   -4.4550    2.4220   -0.8860 H   0  0  0  0  0  0  0  0  0  0  0  0
    2.1020    2.9120    1.9180 H   0  0  0  0  0  0  0  0  0  0  0  0
    1.1760    1.6530    2.7700 H   0  0  0  0  0  0  0  0  0  0  0  0
    2.9370    1.4820    2.5720 H   0  0  0  0  0  0  0  0  0  0  0  0
   -5.2000   -1.8070   -1.7770 H   0  0  0  0  0  0  0  0  0  0  0  0
   -6.8640   -1.6830   -1.1500 H   0  0  0  0  0  0  0  0  0  0  0  0
   -2.2230    3.0710   -0.0950 H   0  0  0  0  0  0  0  0  0  0  0  0
    4.8930   -3.8240    1.2460 H   0  0  0  0  0  0  0  0  0  0  0  0
    4.4380   -2.2810    2.0070 H   0  0  0  0  0  0  0  0  0  0  0  0
    3.3340   -3.0620    0.8490 H   0  0  0  0  0  0  0  0  0  0  0  0
   -6.3830    0.4160   -0.0550 H   0  0  0  0  0  0  0  0  0  0  0  0
   -5.8070    0.5490   -1.7310 H   0  0  0  0  0  0  0  0  0  0  0  0
    5.8860   -0.5980   -1.8780 H   0  0  0  0  0  0  0  0  0  0  0  0
    2.9700    2.4380   -1.1460 H   0  0  0  0  0  0  0  0  0  0  0  0
  1 19  1  0
  1 18  2  0
  1 24  1  0
  2 11  2  0
  2 25  1  0
  3  6  1  0
  4  5  1  0
  4 13  1  0
  4 26  1  0
  4 27  1  0
  5 12  1  0
  5 28  1  0
  5 29  1  0
  6 14  2  0
  6 30  1  0
  7 31  1  0
  7 32  1  0
  7 33  1  0
  8 20  1  0
  8 21  1  0
 10 23  2  0
 10 20  1  0
 11 22  1  0
 11 14  1  0
 12  2  1  0
 12  3  2  0
 13 16  1  0
 13 34  1  0
 13 35  1  0
 14 36  1  0
 15  9  1  0
 15 37  1  0
 15 38  1  0
 15 39  1  0
 16  3  1  0
 16 40  1  0
 16 41  1  0
 17 21  2  0
 17  9  1  0
 18 17  1  0
 18 42  1  0
 19  8  2  0
 19 43  1  0
 20  7  1  0
 22 10  1  0
M  END
$$$$
