ULC
  CCTOOLS-0919241039

 43 45  0  0  0  0  0  0  0  0999 V2000
    4.5000    1.0220   -1.6500 C   0  0  0  0  0
   -2.1800   -0.1990    0.7470 C   0  0  0  0  0
   -4.2590    0.3770   -0.2870 C   0  0  0  0  0
   -5.3750   -2.1390    0.3560 C   0  0  0  0  0
   -3.8590   -2.0010    0.4810 C   0  0  0  0  0
   -3.8150    1.6860   -0.4220 C   0  0  0  0  0
    2.0190    1.8420    2.1050 C   0  0  0  0  0
    2.9010    0.6890    0.1000 C   0  0  0  0  0
    5.0010   -2.1630    0.0220 O   0  0  0  0  0
    0.5560    0.9280    0.3840 C   0  0  0  0  0
   -1.7350    1.1040    0.6050 C   0  0  0  0  0
   -3.4410   -0.5650    0.2990 C   0  0  0  0  0
   -5.8180   -1.4540   -0.9510 C   0  0  0  0  0
   -2.5590    2.0510    0.0140 C   0  0  0  0  0
    4.3790   -2.8750    1.0940 C   0  0  0  0  0
   -5.6470    0.0530   -0.7730 C   0  0  0  0  0
    4.4790   -0.9520   -0.2970 C   0  0  0  0  0
    5.0390   -0.2140   -1.3300 C   0  0  0  0  0
    3.4130    1.4790   -0.9220 C   0  0  0  0  0
    1.8080    1.1390    0.8370 N   0  0  0  0  0
    3.4410   -0.4880    0.3800 N   0  0  0  0  0
   -0.4960    1.4550    1.0410 O   0  0  0  0  0
    0.3030   -0.0090   -1.0260 S   0  0  0  0  0
    4.9200    1.6180   -2.4460 H   0  0  0  0  0
   -1.5380   -0.9380    1.2050 H   0  0  0  0  0
   -5.6470   -3.1940    0.3280 H   0  0  0  0  0
   -5.8590   -1.6580    1.2070 H   0  0  0  0  0
   -3.5470   -2.3450    1.4670 H   0  0  0  0  0
   -3.3790   -2.6140   -0.2820 H   0  0  0  0  0
   -4.4550    2.4220   -0.8860 H   0  0  0  0  0
    2.1020    2.9120    1.9180 H   0  0  0  0  0
    1.1760    1.6530    2.7700 H   0  0  0  0  0
    2.9370    1.4820    2.5720 H   0  0  0  0  0
   -5.2000   -1.8070   -1.7770 H   0  0  0  0  0
   -6.8640   -1.6830   -1.1500 H   0  0  0  0  0
   -2.2230    3.0710   -0.0950 H   0  0  0  0  0
    4.8930   -3.8240    1.2460 H   0  0  0  0  0
    4.4380   -2.2810    2.0070 H   0  0  0  0  0
    3.3340   -3.0620    0.8490 H   0  0  0  0  0
   -6.3830    0.4160   -0.0550 H   0  0  0  0  0
   -5.8070    0.5490   -1.7310 H   0  0  0  0  0
    5.8860   -0.5980   -1.8780 H   0  0  0  0  0
    2.9700    2.4380   -1.1460 H   0  0  0  0  0
  1 19  2  0  0  0
  1 18  1  0  0  0
  1 24  1  0  0  0
  2 11  1  0  0  0
  2 25  1  0  0  0
  3  6  2  0  0  0
  4  5  1  0  0  0
  4 13  1  0  0  0
  4 26  1  0  0  0
  4 27  1  0  0  0
  5 12  1  0  0  0
  5 28  1  0  0  0
  5 29  1  0  0  0
  6 14  1  0  0  0
  6 30  1  0  0  0
  7 31  1  0  0  0
  7 32  1  0  0  0
  7 33  1  0  0  0
  8 20  1  0  0  0
  8 21  2  0  0  0
 10 23  2  0  0  0
 10 20  1  0  0  0
 11 22  1  0  0  0
 11 14  2  0  0  0
 12  2  2  0  0  0
 12  3  1  0  0  0
 13 16  1  0  0  0
 13 34  1  0  0  0
 13 35  1  0  0  0
 14 36  1  0  0  0
 15  9  1  0  0  0
 15 37  1  0  0  0
 15 38  1  0  0  0
 15 39  1  0  0  0
 16  3  1  0  0  0
 16 40  1  0  0  0
 16 41  1  0  0  0
 17 21  1  0  0  0
 17  9  1  0  0  0
 18 17  2  0  0  0
 18 42  1  0  0  0
 19  8  1  0  0  0
 19 43  1  0  0  0
 20  7  1  0  0  0
 22 10  1  0  0  0
M  END
$$$$
