D:\Codex\projectless-workspaces\2026-08-22\non\work\whynot17\analysis\dinp_crc_structural_pipeline\outputs\stage2_refine_and_rescue\cxcr4_refinement\it1t_s0.70_e32_seed3002.pdbqt
 OpenBabel09032623223D

 30 33  0  0  1  0  0  0  0  0999 V2000
   13.4970   -5.3890   77.4250 S   0  0  0  0  0  0  0  0  0  0  0  0
   12.5000   -6.4250   76.4010 C   0  0  0  0  0  2  0  0  0  0  0  0
   12.4880   -5.8340   75.0120 C   0  0  0  0  0  0  0  0  0  0  0  0
   13.5590   -7.8860   72.2030 C   0  0  0  0  0  0  0  0  0  0  0  0
   13.1960   -6.5450   71.7490 N   0  0  0  0  0  0  0  0  0  0  0  0
   13.4680   -7.8480   73.7370 C   0  0  0  0  0  2  0  0  0  0  0  0
   12.8420   -5.8200   72.8190 C   0  0  2  0  0  3  0  0  0  0  0  0
   12.9150   -6.5180   73.9200 N   0  0  0  0  0  0  0  0  0  0  0  0
   12.1070   -4.2820   72.9900 S   0  0  0  0  0  0  0  0  0  0  0  0
   12.0010   -4.5400   74.7100 C   0  0  0  0  0  3  0  0  0  0  0  0
   14.9820   -8.2000   71.7630 C   0  0  0  0  0  1  0  0  0  0  0  0
   12.5600   -8.9020   71.6540 C   0  0  0  0  0  1  0  0  0  0  0  0
   14.0020   -6.1050   71.2810 H   0  0  0  0  0  0  0  0  0  0  0  0
   15.0960   -5.5930   76.9800 C   0  0  0  0  0  3  0  0  0  0  0  0
   15.7530   -4.4800   76.6400 N   0  0  0  0  0  0  0  0  0  0  0  0
   16.4820   -4.3880   77.3610 H   0  0  0  0  0  0  0  0  0  0  0  0
   15.2620   -3.1230   76.4560 C   0  0  0  0  0  3  0  0  0  0  0  0
   15.1650   -2.6670   75.0070 C   0  0  0  0  0  2  0  0  0  0  0  0
   15.8400   -2.0260   77.3360 C   0  0  0  0  0  2  0  0  0  0  0  0
   14.2010   -1.4860   74.9140 C   0  0  0  0  0  2  0  0  0  0  0  0
   14.9330   -0.7940   77.2710 C   0  0  0  0  0  2  0  0  0  0  0  0
   14.5940   -0.3370   75.8440 C   0  0  0  0  0  2  0  0  0  0  0  0
   15.6550   -6.8110   76.9540 N   0  0  0  0  0  0  0  0  0  0  0  0
   14.9510   -7.4350   77.3750 H   0  0  0  0  0  0  0  0  0  0  0  0
   16.9240   -7.2130   77.5620 C   0  0  0  0  0  3  0  0  0  0  0  0
   18.2050   -6.8880   76.7960 C   0  0  0  0  0  2  0  0  0  0  0  0
   17.0520   -6.7890   79.0200 C   0  0  0  0  0  2  0  0  0  0  0  0
   19.4060   -7.5800   77.4400 C   0  0  0  0  0  2  0  0  0  0  0  0
   18.2310   -7.4940   79.6880 C   0  0  0  0  0  2  0  0  0  0  0  0
   19.5350   -7.2610   78.9310 C   0  0  0  0  0  2  0  0  0  0  0  0
  2  1  1  0  0  0  0
  3  2  1  0  0  0  0
  4  6  1  0  0  0  0
  5  4  1  0  0  0  0
  5  7  1  0  0  0  0
  6  8  1  0  0  0  0
  7  9  1  6  0  0  0
  7  8  1  0  0  0  0
  8  3  1  0  0  0  0
  9 10  1  0  0  0  0
 10  3  2  0  0  0  0
 11  4  1  0  0  0  0
 12  4  1  0  0  0  0
 13  5  1  0  0  0  0
 14  1  1  0  0  0  0
 15 14  1  0  0  0  0
 15 16  1  0  0  0  0
 17 15  1  0  0  0  0
 17 19  1  0  0  0  0
 18 17  1  0  0  0  0
 20 18  1  0  0  0  0
 20 22  1  0  0  0  0
 21 19  1  0  0  0  0
 22 21  1  0  0  0  0
 23 14  1  0  0  0  0
 23 24  1  0  0  0  0
 23 25  1  0  0  0  0
 25 27  1  0  0  0  0
 26 28  1  0  0  0  0
 26 25  1  0  0  0  0
 27 29  1  0  0  0  0
 28 30  1  0  0  0  0
 30 29  1  0  0  0  0
M  END
>  <MODEL>
1

>  <REMARK>
 VINA RESULT:    -6.204      0.000      0.000
 INTER + INTRA:          -9.930
 INTER:                  -8.742
 INTRA:                  -1.188
 UNBOUND:                -1.188
 SMILES CC1(C)CN2[C@H](CSC(NC3CCCCC3)NC3CCCCC3)CS[C@@H]2N1
 SMILES IDX 8 1 7 2 6 3 2 4 27 5 4 6 26 7 5 8 25 9 24 10 1 11 3 12 9 14
 SMILES IDX 10 15 11 17 12 18 16 19 13 20 15 21 14 22 17 23 18 25 19 26
 SMILES IDX 23 27 20 28 22 29 21 30
 H PARENT 27 13 10 16 17 24

>  <TORSDO>
F 7

$$$$
D:\Codex\projectless-workspaces\2026-08-22\non\work\whynot17\analysis\dinp_crc_structural_pipeline\outputs\stage2_refine_and_rescue\cxcr4_refinement\it1t_s0.70_e32_seed3002.pdbqt
 OpenBabel09032623223D

 30 33  0  0  1  0  0  0  0  0999 V2000
   13.5240   -6.0510   74.6080 S   0  0  0  0  0  0  0  0  0  0  0  0
   15.0290   -5.1350   74.4910 C   0  0  0  0  0  2  0  0  0  0  0  0
   14.6930   -3.6690   74.6220 C   0  0  0  0  0  0  0  0  0  0  0  0
   14.9030   -2.0880   77.8940 C   0  0  0  0  0  0  0  0  0  0  0  0
   14.4550   -1.1260   76.8880 N   0  0  0  0  0  0  0  0  0  0  0  0
   14.9770   -3.4430   77.1740 C   0  0  0  0  0  2  0  0  0  0  0  0
   14.3620   -1.7620   75.7120 C   0  0  2  0  0  3  0  0  0  0  0  0
   14.7030   -3.0170   75.8130 N   0  0  0  0  0  0  0  0  0  0  0  0
   14.1240   -1.2090   74.1080 S   0  0  0  0  0  0  0  0  0  0  0  0
   14.3780   -2.8310   73.5260 C   0  0  0  0  0  3  0  0  0  0  0  0
   13.8870   -2.1430   79.0270 C   0  0  0  0  0  1  0  0  0  0  0  0
   16.2900   -1.6960   78.3970 C   0  0  0  0  0  1  0  0  0  0  0  0
   13.5350   -0.7470   77.1530 H   0  0  0  0  0  0  0  0  0  0  0  0
   13.9070   -7.6520   74.9020 C   0  0  0  0  0  3  0  0  0  0  0  0
   14.2450   -8.3770   73.8310 N   0  0  0  0  0  0  0  0  0  0  0  0
   15.2740   -8.3390   73.8160 H   0  0  0  0  0  0  0  0  0  0  0  0
   13.8640   -8.2170   72.4350 C   0  0  0  0  0  3  0  0  0  0  0  0
   12.7680   -9.1600   71.9600 C   0  0  0  0  0  2  0  0  0  0  0  0
   14.9700   -8.0980   71.3990 C   0  0  0  0  0  2  0  0  0  0  0  0
   12.1210   -8.5850   70.7010 C   0  0  0  0  0  2  0  0  0  0  0  0
   14.3850   -7.5480   70.0950 C   0  0  0  0  0  2  0  0  0  0  0  0
   13.1410   -8.2990   69.5980 C   0  0  0  0  0  2  0  0  0  0  0  0
   13.8520   -8.1590   76.1410 N   0  0  0  0  0  0  0  0  0  0  0  0
   12.8660   -8.0590   76.4250 H   0  0  0  0  0  0  0  0  0  0  0  0
   14.6240   -7.7260   77.3070 C   0  0  0  0  0  3  0  0  0  0  0  0
   16.0620   -7.2710   77.0700 C   0  0  0  0  0  2  0  0  0  0  0  0
   13.8820   -6.7200   78.1790 C   0  0  0  0  0  2  0  0  0  0  0  0
   16.7940   -7.0880   78.3990 C   0  0  0  0  0  2  0  0  0  0  0  0
   14.5850   -6.5470   79.5250 C   0  0  0  0  0  2  0  0  0  0  0  0
   16.0490   -6.1530   79.3540 C   0  0  0  0  0  2  0  0  0  0  0  0
  1 14  1  0  0  0  0
  2  1  1  0  0  0  0
  2  3  1  0  0  0  0
  3  8  1  0  0  0  0
  4 12  1  0  0  0  0
  4 11  1  0  0  0  0
  5 13  1  0  0  0  0
  5  4  1  0  0  0  0
  6  4  1  0  0  0  0
  7  9  1  6  0  0  0
  7  8  1  0  0  0  0
  7  5  1  0  0  0  0
  8  6  1  0  0  0  0
 10  9  1  0  0  0  0
 10  3  2  0  0  0  0
 14 23  1  0  0  0  0
 15 14  1  0  0  0  0
 16 15  1  0  0  0  0
 17 15  1  0  0  0  0
 18 17  1  0  0  0  0
 19 17  1  0  0  0  0
 20 18  1  0  0  0  0
 21 19  1  0  0  0  0
 22 21  1  0  0  0  0
 22 20  1  0  0  0  0
 23 24  1  0  0  0  0
 23 25  1  0  0  0  0
 25 27  1  0  0  0  0
 26 25  1  0  0  0  0
 26 28  1  0  0  0  0
 27 29  1  0  0  0  0
 28 30  1  0  0  0  0
 30 29  1  0  0  0  0
M  END
>  <MODEL>
2

>  <REMARK>
 VINA RESULT:    -5.925      1.972      6.110
 INTER + INTRA:          -9.538
 INTER:                  -8.501
 INTRA:                  -1.037
 UNBOUND:                -1.188
 SMILES CC1(C)CN2[C@H](CSC(NC3CCCCC3)NC3CCCCC3)CS[C@@H]2N1
 SMILES IDX 8 1 7 2 6 3 2 4 27 5 4 6 26 7 5 8 25 9 24 10 1 11 3 12 9 14
 SMILES IDX 10 15 11 17 12 18 16 19 13 20 15 21 14 22 17 23 18 25 19 26
 SMILES IDX 23 27 20 28 22 29 21 30
 H PARENT 27 13 10 16 17 24

>  <TORSDO>
F 7

$$$$
D:\Codex\projectless-workspaces\2026-08-22\non\work\whynot17\analysis\dinp_crc_structural_pipeline\outputs\stage2_refine_and_rescue\cxcr4_refinement\it1t_s0.70_e32_seed3002.pdbqt
 OpenBabel09032623223D

 30 33  0  0  1  0  0  0  0  0999 V2000
   14.4950   -5.9580   74.7570 S   0  0  0  0  0  0  0  0  0  0  0  0
   13.1640   -4.8540   75.1130 C   0  0  0  0  0  2  0  0  0  0  0  0
   13.5770   -3.4700   74.6760 C   0  0  0  0  0  0  0  0  0  0  0  0
   14.6810   -1.0740   77.1840 C   0  0  0  0  0  0  0  0  0  0  0  0
   14.6980   -0.4670   75.8530 N   0  0  0  0  0  0  0  0  0  0  0  0
   14.0620   -2.4680   77.0010 C   0  0  0  0  0  2  0  0  0  0  0  0
   14.2530   -1.3750   74.9730 C   0  0  2  0  0  3  0  0  0  0  0  0
   13.9570   -2.5060   75.5530 N   0  0  0  0  0  0  0  0  0  0  0  0
   14.2290   -1.4170   73.2600 S   0  0  0  0  0  0  0  0  0  0  0  0
   13.6460   -3.0580   73.3230 C   0  0  0  0  0  3  0  0  0  0  0  0
   13.8200   -0.2280   78.1120 C   0  0  0  0  0  1  0  0  0  0  0  0
   16.1100   -1.2090   77.7040 C   0  0  0  0  0  1  0  0  0  0  0  0
   14.0850    0.3600   75.8390 H   0  0  0  0  0  0  0  0  0  0  0  0
   13.9870   -7.5160   75.0900 C   0  0  0  0  0  3  0  0  0  0  0  0
   13.9300   -7.8470   76.3840 N   0  0  0  0  0  0  0  0  0  0  0  0
   12.9810   -7.5710   76.6730 H   0  0  0  0  0  0  0  0  0  0  0  0
   14.7740   -7.4300   77.4940 C   0  0  0  0  0  3  0  0  0  0  0  0
   14.2170   -6.2840   78.3260 C   0  0  0  0  0  2  0  0  0  0  0  0
   16.2600   -7.2430   77.2330 C   0  0  0  0  0  2  0  0  0  0  0  0
   14.8970   -6.2770   79.6930 C   0  0  0  0  0  2  0  0  0  0  0  0
   17.0070   -7.2020   78.5700 C   0  0  0  0  0  2  0  0  0  0  0  0
   16.4220   -6.2110   79.5870 C   0  0  0  0  0  2  0  0  0  0  0  0
   13.6800   -8.3680   74.1020 N   0  0  0  0  0  0  0  0  0  0  0  0
   14.4050   -9.0980   74.1460 H   0  0  0  0  0  0  0  0  0  0  0  0
   13.5450   -8.0570   72.6780 C   0  0  0  0  0  3  0  0  0  0  0  0
   14.7870   -8.2090   71.8030 C   0  0  0  0  0  2  0  0  0  0  0  0
   12.3450   -8.7360   72.0270 C   0  0  0  0  0  2  0  0  0  0  0  0
   14.5410   -7.6210   70.4140 C   0  0  0  0  0  2  0  0  0  0  0  0
   12.0670   -8.1400   70.6480 C   0  0  0  0  0  2  0  0  0  0  0  0
   13.2950   -8.2040   69.7440 C   0  0  0  0  0  2  0  0  0  0  0  0
  1 14  1  0  0  0  0
  1  2  1  0  0  0  0
  3  2  1  0  0  0  0
  3  8  1  0  0  0  0
  4 12  1  0  0  0  0
  4 11  1  0  0  0  0
  5  4  1  0  0  0  0
  6  4  1  0  0  0  0
  7  9  1  6  0  0  0
  7  8  1  0  0  0  0
  7  5  1  0  0  0  0
  8  6  1  0  0  0  0
  9 10  1  0  0  0  0
 10  3  2  0  0  0  0
 13  5  1  0  0  0  0
 14 15  1  0  0  0  0
 15 16  1  0  0  0  0
 15 17  1  0  0  0  0
 17 18  1  0  0  0  0
 18 20  1  0  0  0  0
 19 17  1  0  0  0  0
 19 21  1  0  0  0  0
 21 22  1  0  0  0  0
 22 20  1  0  0  0  0
 23 24  1  0  0  0  0
 23 14  1  0  0  0  0
 25 23  1  0  0  0  0
 26 25  1  0  0  0  0
 27 25  1  0  0  0  0
 28 26  1  0  0  0  0
 29 27  1  0  0  0  0
 30 28  1  0  0  0  0
 30 29  1  0  0  0  0
M  END
>  <MODEL>
3

>  <REMARK>
 VINA RESULT:    -5.609      1.895      6.638
 INTER + INTRA:          -9.092
 INTER:                  -8.581
 INTRA:                  -0.512
 UNBOUND:                -1.188
 SMILES CC1(C)CN2[C@H](CSC(NC3CCCCC3)NC3CCCCC3)CS[C@@H]2N1
 SMILES IDX 8 1 7 2 6 3 2 4 27 5 4 6 26 7 5 8 25 9 24 10 1 11 3 12 9 14
 SMILES IDX 10 15 11 17 12 18 16 19 13 20 15 21 14 22 17 23 18 25 19 26
 SMILES IDX 23 27 20 28 22 29 21 30
 H PARENT 27 13 10 16 17 24

>  <TORSDO>
F 7

$$$$
D:\Codex\projectless-workspaces\2026-08-22\non\work\whynot17\analysis\dinp_crc_structural_pipeline\outputs\stage2_refine_and_rescue\cxcr4_refinement\it1t_s0.70_e32_seed3002.pdbqt
 OpenBabel09032623223D

 30 33  0  0  1  0  0  0  0  0999 V2000
   13.4470   -4.3510   73.9330 S   0  0  0  0  0  0  0  0  0  0  0  0
   11.9860   -5.1260   73.3140 C   0  0  0  0  0  2  0  0  0  0  0  0
   12.3340   -5.8040   72.0110 C   0  0  0  0  0  0  0  0  0  0  0  0
   13.8140   -9.1280   72.0830 C   0  0  0  0  0  0  0  0  0  0  0  0
   13.6810   -8.6560   70.7050 N   0  0  0  0  0  0  0  0  0  0  0  0
   13.3900   -7.9490   72.9720 C   0  0  0  0  0  2  0  0  0  0  0  0
   13.1650   -7.4200   70.7330 C   0  0  2  0  0  3  0  0  0  0  0  0
   12.9300   -7.0220   71.9540 N   0  0  0  0  0  0  0  0  0  0  0  0
   12.5490   -6.3890   69.5110 S   0  0  0  0  0  0  0  0  0  0  0  0
   12.0420   -5.2600   70.7370 C   0  0  0  0  0  3  0  0  0  0  0  0
   15.2660   -9.5000   72.3510 C   0  0  0  0  0  1  0  0  0  0  0  0
   12.8750  -10.3100   72.3120 C   0  0  0  0  0  1  0  0  0  0  0  0
   14.6060   -8.6370   70.2520 H   0  0  0  0  0  0  0  0  0  0  0  0
   13.3860   -4.3770   75.6030 C   0  0  0  0  0  3  0  0  0  0  0  0
   13.4880   -5.5830   76.1720 N   0  0  0  0  0  0  0  0  0  0  0  0
   12.6110   -5.6860   76.7010 H   0  0  0  0  0  0  0  0  0  0  0  0
   14.5070   -6.1130   77.0660 C   0  0  0  0  0  3  0  0  0  0  0  0
   14.4620   -5.5630   78.4840 C   0  0  0  0  0  2  0  0  0  0  0  0
   15.9370   -6.1920   76.5560 C   0  0  0  0  0  2  0  0  0  0  0  0
   15.2010   -6.5190   79.4180 C   0  0  0  0  0  2  0  0  0  0  0  0
   16.7480   -7.1190   77.4640 C   0  0  0  0  0  2  0  0  0  0  0  0
   16.6360   -6.7900   78.9610 C   0  0  0  0  0  2  0  0  0  0  0  0
   13.2260   -3.2480   76.3060 N   0  0  0  0  0  0  0  0  0  0  0  0
   12.3290   -2.8580   75.9810 H   0  0  0  0  0  0  0  0  0  0  0  0
   14.1370   -2.1030   76.3570 C   0  0  0  0  0  3  0  0  0  0  0  0
   13.5460   -0.7510   76.7530 C   0  0  0  0  0  2  0  0  0  0  0  0
   15.4090   -2.3830   77.1490 C   0  0  0  0  0  2  0  0  0  0  0  0
   14.5630    0.3660   76.5240 C   0  0  0  0  0  2  0  0  0  0  0  0
   16.4480   -1.2890   76.9080 C   0  0  0  0  0  2  0  0  0  0  0  0
   15.8970    0.0980   77.2250 C   0  0  0  0  0  2  0  0  0  0  0  0
  1 14  1  0  0  0  0
  2  1  1  0  0  0  0
  3  2  1  0  0  0  0
  4 12  1  0  0  0  0
  4 11  1  0  0  0  0
  4  6  1  0  0  0  0
  5  7  1  0  0  0  0
  5  4  1  0  0  0  0
  7  9  1  6  0  0  0
  7  8  1  0  0  0  0
  8  3  1  0  0  0  0
  8  6  1  0  0  0  0
  9 10  1  0  0  0  0
 10  3  2  0  0  0  0
 13  5  1  0  0  0  0
 14 15  1  0  0  0  0
 14 23  1  0  0  0  0
 15 16  1  0  0  0  0
 15 17  1  0  0  0  0
 17 18  1  0  0  0  0
 18 20  1  0  0  0  0
 19 17  1  0  0  0  0
 19 21  1  0  0  0  0
 21 22  1  0  0  0  0
 22 20  1  0  0  0  0
 23 25  1  0  0  0  0
 24 23  1  0  0  0  0
 25 26  1  0  0  0  0
 25 27  1  0  0  0  0
 28 26  1  0  0  0  0
 28 30  1  0  0  0  0
 29 27  1  0  0  0  0
 29 30  1  0  0  0  0
M  END
>  <MODEL>
4

>  <REMARK>
 VINA RESULT:    -5.441      1.750      4.885
 INTER + INTRA:          -8.855
 INTER:                  -7.837
 INTRA:                  -1.018
 UNBOUND:                -1.188
 SMILES CC1(C)CN2[C@H](CSC(NC3CCCCC3)NC3CCCCC3)CS[C@@H]2N1
 SMILES IDX 8 1 7 2 6 3 2 4 27 5 4 6 26 7 5 8 25 9 24 10 1 11 3 12 9 14
 SMILES IDX 10 15 11 17 12 18 16 19 13 20 15 21 14 22 17 23 18 25 19 26
 SMILES IDX 23 27 20 28 22 29 21 30
 H PARENT 27 13 10 16 17 24

>  <TORSDO>
F 7

$$$$
D:\Codex\projectless-workspaces\2026-08-22\non\work\whynot17\analysis\dinp_crc_structural_pipeline\outputs\stage2_refine_and_rescue\cxcr4_refinement\it1t_s0.70_e32_seed3002.pdbqt
 OpenBabel09032623223D

 30 33  0  0  1  0  0  0  0  0999 V2000
   14.7560   -5.9890   74.4290 S   0  0  0  0  0  0  0  0  0  0  0  0
   13.4780   -4.7970   74.1770 C   0  0  0  0  0  2  0  0  0  0  0  0
   13.1370   -4.1890   75.5150 C   0  0  0  0  0  0  0  0  0  0  0  0
   14.8710   -1.1730   76.5860 C   0  0  0  0  0  0  0  0  0  0  0  0
   13.9280   -1.6140   77.6130 N   0  0  0  0  0  0  0  0  0  0  0  0
   14.8470   -2.2610   75.5000 C   0  0  0  0  0  2  0  0  0  0  0  0
   13.3420   -2.7410   77.1880 C   0  0  2  0  0  3  0  0  0  0  0  0
   13.7700   -3.0930   76.0060 N   0  0  0  0  0  0  0  0  0  0  0  0
   12.0080   -3.6480   77.7680 S   0  0  0  0  0  0  0  0  0  0  0  0
   12.1110   -4.6730   76.3620 C   0  0  0  0  0  3  0  0  0  0  0  0
   16.2620   -1.0600   77.1940 C   0  0  0  0  0  1  0  0  0  0  0  0
   14.4020    0.1540   75.9950 C   0  0  0  0  0  1  0  0  0  0  0  0
   14.4300   -1.7930   78.4930 H   0  0  0  0  0  0  0  0  0  0  0  0
   14.0400   -7.4520   74.8070 C   0  0  0  0  0  3  0  0  0  0  0  0
   14.0170   -7.7720   76.1050 N   0  0  0  0  0  0  0  0  0  0  0  0
   13.0190   -7.7350   76.3550 H   0  0  0  0  0  0  0  0  0  0  0  0
   14.6890   -7.1460   77.2340 C   0  0  0  0  0  3  0  0  0  0  0  0
   16.0950   -7.6590   77.5060 C   0  0  0  0  0  2  0  0  0  0  0  0
   13.9090   -6.9780   78.5280 C   0  0  0  0  0  2  0  0  0  0  0  0
   16.8560   -6.6280   78.3370 C   0  0  0  0  0  2  0  0  0  0  0  0
   14.6310   -5.9700   79.4270 C   0  0  0  0  0  2  0  0  0  0  0  0
   16.1250   -6.2660   79.6310 C   0  0  0  0  0  2  0  0  0  0  0  0
   13.5460   -8.2470   73.8480 N   0  0  0  0  0  0  0  0  0  0  0  0
   14.1040   -9.1110   73.9050 H   0  0  0  0  0  0  0  0  0  0  0  0
   13.4540   -7.9520   72.4170 C   0  0  0  0  0  3  0  0  0  0  0  0
   14.7150   -8.1440   71.5770 C   0  0  0  0  0  2  0  0  0  0  0  0
   12.2570   -8.6140   71.7440 C   0  0  0  0  0  2  0  0  0  0  0  0
   14.5180   -7.5700   70.1750 C   0  0  0  0  0  2  0  0  0  0  0  0
   12.0280   -8.0310   70.3500 C   0  0  0  0  0  2  0  0  0  0  0  0
   13.2770   -8.1340   69.4790 C   0  0  0  0  0  2  0  0  0  0  0  0
  1 14  1  0  0  0  0
  2  1  1  0  0  0  0
  2  3  1  0  0  0  0
  3  8  1  0  0  0  0
  3 10  2  0  0  0  0
  4 11  1  0  0  0  0
  4  5  1  0  0  0  0
  5 13  1  0  0  0  0
  6  8  1  0  0  0  0
  6  4  1  0  0  0  0
  7  5  1  0  0  0  0
  7  9  1  6  0  0  0
  8  7  1  0  0  0  0
 10  9  1  0  0  0  0
 12  4  1  0  0  0  0
 14 15  1  0  0  0  0
 15 16  1  0  0  0  0
 15 17  1  0  0  0  0
 17 18  1  0  0  0  0
 17 19  1  0  0  0  0
 18 20  1  0  0  0  0
 19 21  1  0  0  0  0
 20 22  1  0  0  0  0
 21 22  1  0  0  0  0
 23 24  1  0  0  0  0
 23 14  1  0  0  0  0
 25 23  1  0  0  0  0
 26 25  1  0  0  0  0
 27 25  1  0  0  0  0
 28 26  1  0  0  0  0
 29 27  1  0  0  0  0
 30 28  1  0  0  0  0
 30 29  1  0  0  0  0
M  END
>  <MODEL>
5

>  <REMARK>
 VINA RESULT:    -5.439      1.809      6.612
 INTER + INTRA:          -8.853
 INTER:                  -7.856
 INTRA:                  -0.997
 UNBOUND:                -1.188
 SMILES CC1(C)CN2[C@H](CSC(NC3CCCCC3)NC3CCCCC3)CS[C@@H]2N1
 SMILES IDX 8 1 7 2 6 3 2 4 27 5 4 6 26 7 5 8 25 9 24 10 1 11 3 12 9 14
 SMILES IDX 10 15 11 17 12 18 16 19 13 20 15 21 14 22 17 23 18 25 19 26
 SMILES IDX 23 27 20 28 22 29 21 30
 H PARENT 27 13 10 16 17 24

>  <TORSDO>
F 7

$$$$
D:\Codex\projectless-workspaces\2026-08-22\non\work\whynot17\analysis\dinp_crc_structural_pipeline\outputs\stage2_refine_and_rescue\cxcr4_refinement\it1t_s0.70_e32_seed3002.pdbqt
 OpenBabel09032623223D

 30 33  0  0  1  0  0  0  0  0999 V2000
   12.4650   -6.6070   75.9780 S   0  0  0  0  0  0  0  0  0  0  0  0
   12.5850   -5.0070   76.7140 C   0  0  0  0  0  2  0  0  0  0  0  0
   12.9620   -4.0230   75.6330 C   0  0  0  0  0  0  0  0  0  0  0  0
   15.0140   -1.1430   76.4930 C   0  0  0  0  0  0  0  0  0  0  0  0
   14.6630   -1.1170   75.0730 N   0  0  0  0  0  0  0  0  0  0  0  0
   14.2460   -2.3320   77.0930 C   0  0  0  0  0  2  0  0  0  0  0  0
   13.8830   -2.1750   74.8150 C   0  0  2  0  0  3  0  0  0  0  0  0
   13.6850   -2.9020   75.8810 N   0  0  0  0  0  0  0  0  0  0  0  0
   13.3130   -2.8700   73.3560 S   0  0  0  0  0  0  0  0  0  0  0  0
   12.6350   -4.1920   74.2660 C   0  0  0  0  0  3  0  0  0  0  0  0
   14.5720    0.1590   77.1460 C   0  0  0  0  0  1  0  0  0  0  0  0
   16.5160   -1.3720   76.6460 C   0  0  0  0  0  1  0  0  0  0  0  0
   14.1560   -0.2480   74.8560 H   0  0  0  0  0  0  0  0  0  0  0  0
   13.9940   -7.0760   75.4900 C   0  0  0  0  0  3  0  0  0  0  0  0
   14.0440   -8.0820   74.6120 N   0  0  0  0  0  0  0  0  0  0  0  0
   15.0060   -8.4390   74.6920 H   0  0  0  0  0  0  0  0  0  0  0  0
   13.7820   -8.0870   73.1800 C   0  0  0  0  0  3  0  0  0  0  0  0
   12.7790   -9.1340   72.7170 C   0  0  0  0  0  2  0  0  0  0  0  0
   14.9690   -8.0130   72.2340 C   0  0  0  0  0  2  0  0  0  0  0  0
   12.2200   -8.7280   71.3540 C   0  0  0  0  0  2  0  0  0  0  0  0
   14.4790   -7.6320   70.8340 C   0  0  0  0  0  2  0  0  0  0  0  0
   13.3210   -8.4990   70.3170 C   0  0  0  0  0  2  0  0  0  0  0  0
   15.0880   -6.4760   75.9800 N   0  0  0  0  0  0  0  0  0  0  0  0
   15.7970   -6.5710   75.2380 H   0  0  0  0  0  0  0  0  0  0  0  0
   15.7950   -6.8030   77.2190 C   0  0  0  0  0  3  0  0  0  0  0  0
   17.3010   -7.0420   77.1290 C   0  0  0  0  0  2  0  0  0  0  0  0
   15.4730   -5.8480   78.3630 C   0  0  0  0  0  2  0  0  0  0  0  0
   17.8350   -7.6030   78.4460 C   0  0  0  0  0  2  0  0  0  0  0  0
   15.9760   -6.4080   79.6930 C   0  0  0  0  0  2  0  0  0  0  0  0
   17.4660   -6.7290   79.6470 C   0  0  0  0  0  2  0  0  0  0  0  0
  1  2  1  0  0  0  0
  3  8  1  0  0  0  0
  3  2  1  0  0  0  0
  4 12  1  0  0  0  0
  4  6  1  0  0  0  0
  4 11  1  0  0  0  0
  5  4  1  0  0  0  0
  7  9  1  6  0  0  0
  7  5  1  0  0  0  0
  7  8  1  0  0  0  0
  8  6  1  0  0  0  0
  9 10  1  0  0  0  0
 10  3  2  0  0  0  0
 13  5  1  0  0  0  0
 14  1  1  0  0  0  0
 14 23  1  0  0  0  0
 15 16  1  0  0  0  0
 15 14  1  0  0  0  0
 17 15  1  0  0  0  0
 18 17  1  0  0  0  0
 19 17  1  0  0  0  0
 20 18  1  0  0  0  0
 21 19  1  0  0  0  0
 22 21  1  0  0  0  0
 22 20  1  0  0  0  0
 23 25  1  0  0  0  0
 24 23  1  0  0  0  0
 25 27  1  0  0  0  0
 26 25  1  0  0  0  0
 26 28  1  0  0  0  0
 27 29  1  0  0  0  0
 28 30  1  0  0  0  0
 30 29  1  0  0  0  0
M  END
>  <MODEL>
6

>  <REMARK>
 VINA RESULT:    -5.382      1.544      5.629
 INTER + INTRA:          -8.772
 INTER:                  -8.060
 INTRA:                  -0.712
 UNBOUND:                -1.188
 SMILES CC1(C)CN2[C@H](CSC(NC3CCCCC3)NC3CCCCC3)CS[C@@H]2N1
 SMILES IDX 8 1 7 2 6 3 2 4 27 5 4 6 26 7 5 8 25 9 24 10 1 11 3 12 9 14
 SMILES IDX 10 15 11 17 12 18 16 19 13 20 15 21 14 22 17 23 18 25 19 26
 SMILES IDX 23 27 20 28 22 29 21 30
 H PARENT 27 13 10 16 17 24

>  <TORSDO>
F 7

$$$$
D:\Codex\projectless-workspaces\2026-08-22\non\work\whynot17\analysis\dinp_crc_structural_pipeline\outputs\stage2_refine_and_rescue\cxcr4_refinement\it1t_s0.70_e32_seed3002.pdbqt
 OpenBabel09032623223D

 30 33  0  0  1  0  0  0  0  0999 V2000
   13.2850   -3.6180   73.2920 S   0  0  0  0  0  0  0  0  0  0  0  0
   12.0100   -4.8320   73.1540 C   0  0  0  0  0  2  0  0  0  0  0  0
   12.2720   -5.6440   71.9090 C   0  0  0  0  0  0  0  0  0  0  0  0
   13.5100   -9.0510   72.2410 C   0  0  0  0  0  0  0  0  0  0  0  0
   13.3730   -8.6900   70.8300 N   0  0  0  0  0  0  0  0  0  0  0  0
   13.1970   -7.7710   73.0320 C   0  0  0  0  0  2  0  0  0  0  0  0
   12.9480   -7.4210   70.7610 C   0  0  2  0  0  3  0  0  0  0  0  0
   12.7770   -6.9040   71.9460 N   0  0  0  0  0  0  0  0  0  0  0  0
   12.3750   -6.4570   69.4660 S   0  0  0  0  0  0  0  0  0  0  0  0
   11.9850   -5.1920   70.5980 C   0  0  0  0  0  3  0  0  0  0  0  0
   14.9380   -9.5050   72.5090 C   0  0  0  0  0  1  0  0  0  0  0  0
   12.4950  -10.1360   72.5930 C   0  0  0  0  0  1  0  0  0  0  0  0
   14.2840   -8.7790   70.3580 H   0  0  0  0  0  0  0  0  0  0  0  0
   13.4170   -3.1770   74.8990 C   0  0  0  0  0  3  0  0  0  0  0  0
   13.8850   -1.9460   75.1300 N   0  0  0  0  0  0  0  0  0  0  0  0
   14.6000   -1.8080   74.4020 H   0  0  0  0  0  0  0  0  0  0  0  0
   14.4860   -1.3840   76.3300 C   0  0  0  0  0  3  0  0  0  0  0  0
   14.4340    0.1340   76.4210 C   0  0  0  0  0  2  0  0  0  0  0  0
   15.8440   -1.9110   76.7650 C   0  0  0  0  0  2  0  0  0  0  0  0
   14.6150    0.5580   77.8770 C   0  0  0  0  0  2  0  0  0  0  0  0
   16.1050   -1.5000   78.2170 C   0  0  0  0  0  2  0  0  0  0  0  0
   15.8980   -0.0030   78.4940 C   0  0  0  0  0  2  0  0  0  0  0  0
   13.0870   -4.0300   75.8780 N   0  0  0  0  0  0  0  0  0  0  0  0
   12.8680   -3.4330   76.6880 H   0  0  0  0  0  0  0  0  0  0  0  0
   13.9090   -5.1130   76.4200 C   0  0  0  0  0  3  0  0  0  0  0  0
   15.2900   -5.3250   75.8040 C   0  0  0  0  0  2  0  0  0  0  0  0
   14.0000   -5.0920   77.9420 C   0  0  0  0  0  2  0  0  0  0  0  0
   15.9100   -6.6260   76.3110 C   0  0  0  0  0  2  0  0  0  0  0  0
   14.5920   -6.3990   78.4680 C   0  0  0  0  0  2  0  0  0  0  0  0
   15.9480   -6.7020   77.8390 C   0  0  0  0  0  2  0  0  0  0  0  0
  1 14  1  0  0  0  0
  2  1  1  0  0  0  0
  3  8  1  0  0  0  0
  3  2  1  0  0  0  0
  4 11  1  0  0  0  0
  4 12  1  0  0  0  0
  4  6  1  0  0  0  0
  5  4  1  0  0  0  0
  7  9  1  1  0  0  0
  7  5  1  0  0  0  0
  7  8  1  0  0  0  0
  8  6  1  0  0  0  0
  9 10  1  0  0  0  0
 10  3  2  0  0  0  0
 13  5  1  0  0  0  0
 14 15  1  0  0  0  0
 14 23  1  0  0  0  0
 15 17  1  0  0  0  0
 16 15  1  0  0  0  0
 17 18  1  0  0  0  0
 17 19  1  0  0  0  0
 18 20  1  0  0  0  0
 19 21  1  0  0  0  0
 20 22  1  0  0  0  0
 21 22  1  0  0  0  0
 23 25  1  0  0  0  0
 23 24  1  0  0  0  0
 25 27  1  0  0  0  0
 26 28  1  0  0  0  0
 26 25  1  0  0  0  0
 27 29  1  0  0  0  0
 28 30  1  0  0  0  0
 30 29  1  0  0  0  0
M  END
>  <MODEL>
7

>  <REMARK>
 VINA RESULT:    -5.315      2.143      3.135
 INTER + INTRA:          -8.678
 INTER:                  -7.505
 INTRA:                  -1.173
 UNBOUND:                -1.188
 SMILES CC1(C)CN2[C@H](CSC(NC3CCCCC3)NC3CCCCC3)CS[C@@H]2N1
 SMILES IDX 8 1 7 2 6 3 2 4 27 5 4 6 26 7 5 8 25 9 24 10 1 11 3 12 9 14
 SMILES IDX 10 15 11 17 12 18 16 19 13 20 15 21 14 22 17 23 18 25 19 26
 SMILES IDX 23 27 20 28 22 29 21 30
 H PARENT 27 13 10 16 17 24

>  <TORSDO>
F 7

$$$$
D:\Codex\projectless-workspaces\2026-08-22\non\work\whynot17\analysis\dinp_crc_structural_pipeline\outputs\stage2_refine_and_rescue\cxcr4_refinement\it1t_s0.70_e32_seed3002.pdbqt
 OpenBabel09032623223D

 30 33  0  0  1  0  0  0  0  0999 V2000
   13.0200   -7.0060   75.8650 S   0  0  0  0  0  0  0  0  0  0  0  0
   12.4550   -5.3460   75.6540 C   0  0  0  0  0  2  0  0  0  0  0  0
   12.8070   -4.5720   76.9010 C   0  0  0  0  0  0  0  0  0  0  0  0
   14.9970   -1.6780   76.6330 C   0  0  0  0  0  0  0  0  0  0  0  0
   14.6150   -1.9040   78.0260 N   0  0  0  0  0  0  0  0  0  0  0  0
   14.4150   -2.8590   75.8420 C   0  0  0  0  0  2  0  0  0  0  0  0
   13.8400   -2.9950   78.0770 C   0  0  2  0  0  3  0  0  0  0  0  0
   13.6520   -3.5100   76.8920 N   0  0  0  0  0  0  0  0  0  0  0  0
   12.8810   -3.6830   79.3190 S   0  0  0  0  0  0  0  0  0  0  0  0
   12.2660   -4.8490   78.1800 C   0  0  0  0  0  3  0  0  0  0  0  0
   16.5160   -1.6610   76.5220 C   0  0  0  0  0  1  0  0  0  0  0  0
   14.3790   -0.3720   76.1380 C   0  0  0  0  0  1  0  0  0  0  0  0
   15.4590   -2.0490   78.6000 H   0  0  0  0  0  0  0  0  0  0  0  0
   14.6140   -7.0840   75.3690 C   0  0  0  0  0  3  0  0  0  0  0  0
   14.8620   -7.8830   74.3250 N   0  0  0  0  0  0  0  0  0  0  0  0
   15.8510   -7.7050   74.1020 H   0  0  0  0  0  0  0  0  0  0  0  0
   14.2100   -7.9520   73.0260 C   0  0  0  0  0  3  0  0  0  0  0  0
   13.2400   -9.1130   72.8580 C   0  0  0  0  0  2  0  0  0  0  0  0
   15.0680   -7.7730   71.7840 C   0  0  0  0  0  2  0  0  0  0  0  0
   12.2800   -8.8040   71.7110 C   0  0  0  0  0  2  0  0  0  0  0  0
   14.1650   -7.4830   70.5820 C   0  0  0  0  0  2  0  0  0  0  0  0
   13.0120   -8.4830   70.4060 C   0  0  0  0  0  2  0  0  0  0  0  0
   15.5700   -6.3940   76.0060 N   0  0  0  0  0  0  0  0  0  0  0  0
   16.1450   -5.9830   75.2560 H   0  0  0  0  0  0  0  0  0  0  0  0
   16.5350   -6.9130   76.9780 C   0  0  0  0  0  3  0  0  0  0  0  0
   18.0070   -6.9190   76.5730 C   0  0  0  0  0  2  0  0  0  0  0  0
   16.3650   -6.3130   78.3690 C   0  0  0  0  0  2  0  0  0  0  0  0
   18.8390   -7.7040   77.5870 C   0  0  0  0  0  2  0  0  0  0  0  0
   17.1680   -7.1040   79.4010 C   0  0  0  0  0  2  0  0  0  0  0  0
   18.6420   -7.2030   79.0200 C   0  0  0  0  0  2  0  0  0  0  0  0
  2  1  1  0  0  0  0
  2  3  1  0  0  0  0
  3 10  2  0  0  0  0
  4  5  1  0  0  0  0
  5  7  1  0  0  0  0
  5 13  1  0  0  0  0
  6  4  1  0  0  0  0
  6  8  1  0  0  0  0
  7  9  1  6  0  0  0
  8  3  1  0  0  0  0
  8  7  1  0  0  0  0
 10  9  1  0  0  0  0
 11  4  1  0  0  0  0
 12  4  1  0  0  0  0
 14  1  1  0  0  0  0
 14 23  1  0  0  0  0
 15 14  1  0  0  0  0
 16 15  1  0  0  0  0
 17 15  1  0  0  0  0
 18 17  1  0  0  0  0
 19 17  1  0  0  0  0
 20 18  1  0  0  0  0
 21 19  1  0  0  0  0
 22 21  1  0  0  0  0
 22 20  1  0  0  0  0
 23 25  1  0  0  0  0
 24 23  1  0  0  0  0
 25 27  1  0  0  0  0
 26 25  1  0  0  0  0
 26 28  1  0  0  0  0
 27 29  1  0  0  0  0
 28 30  1  0  0  0  0
 30 29  1  0  0  0  0
M  END
>  <MODEL>
8

>  <REMARK>
 VINA RESULT:    -5.094      1.627      5.685
 INTER + INTRA:          -8.366
 INTER:                  -7.376
 INTRA:                  -0.990
 UNBOUND:                -1.188
 SMILES CC1(C)CN2[C@H](CSC(NC3CCCCC3)NC3CCCCC3)CS[C@@H]2N1
 SMILES IDX 8 1 7 2 6 3 2 4 27 5 4 6 26 7 5 8 25 9 24 10 1 11 3 12 9 14
 SMILES IDX 10 15 11 17 12 18 16 19 13 20 15 21 14 22 17 23 18 25 19 26
 SMILES IDX 23 27 20 28 22 29 21 30
 H PARENT 27 13 10 16 17 24

>  <TORSDO>
F 7

$$$$
D:\Codex\projectless-workspaces\2026-08-22\non\work\whynot17\analysis\dinp_crc_structural_pipeline\outputs\stage2_refine_and_rescue\cxcr4_refinement\it1t_s0.70_e32_seed3002.pdbqt
 OpenBabel09032623223D

 30 33  0  0  1  0  0  0  0  0999 V2000
   15.2410   -5.5820   74.0280 S   0  0  0  0  0  0  0  0  0  0  0  0
   15.5540   -7.1910   73.3710 C   0  0  0  0  0  2  0  0  0  0  0  0
   14.2370   -7.7760   72.9230 C   0  0  0  0  0  0  0  0  0  0  0  0
   13.3490   -7.6520   69.3960 C   0  0  0  0  0  0  0  0  0  0  0  0
   12.2800   -8.2790   70.1720 N   0  0  0  0  0  0  0  0  0  0  0  0
   14.3820   -7.1650   70.4240 C   0  0  0  0  0  2  0  0  0  0  0  0
   12.6380   -8.2710   71.4630 C   0  0  2  0  0  3  0  0  0  0  0  0
   13.8130   -7.7280   71.6350 N   0  0  0  0  0  0  0  0  0  0  0  0
   11.9850   -9.0270   72.8550 S   0  0  0  0  0  0  0  0  0  0  0  0
   13.3440   -8.4570   73.7850 C   0  0  0  0  0  3  0  0  0  0  0  0
   12.7810   -6.4740   68.6150 C   0  0  0  0  0  1  0  0  0  0  0  0
   13.9890   -8.6860   68.4730 C   0  0  0  0  0  1  0  0  0  0  0  0
   11.4040   -7.7510   70.0500 H   0  0  0  0  0  0  0  0  0  0  0  0
   15.4480   -5.6440   75.6860 C   0  0  0  0  0  3  0  0  0  0  0  0
   16.1010   -6.7130   76.1530 N   0  0  0  0  0  0  0  0  0  0  0  0
   15.3630   -7.2960   76.5690 H   0  0  0  0  0  0  0  0  0  0  0  0
   17.1980   -6.7950   77.1060 C   0  0  0  0  0  3  0  0  0  0  0  0
   18.4580   -7.4630   76.5740 C   0  0  0  0  0  2  0  0  0  0  0  0
   16.8870   -7.2620   78.5180 C   0  0  0  0  0  2  0  0  0  0  0  0
   19.6490   -7.0510   77.4370 C   0  0  0  0  0  2  0  0  0  0  0  0
   18.0560   -6.9030   79.4400 C   0  0  0  0  0  2  0  0  0  0  0  0
   19.4290   -7.3560   78.9200 C   0  0  0  0  0  2  0  0  0  0  0  0
   14.9630   -4.6780   76.4780 N   0  0  0  0  0  0  0  0  0  0  0  0
   13.9500   -4.8620   76.5310 H   0  0  0  0  0  0  0  0  0  0  0  0
   15.0720   -3.2320   76.2770 C   0  0  0  0  0  3  0  0  0  0  0  0
   13.9160   -2.5300   75.5690 C   0  0  0  0  0  2  0  0  0  0  0  0
   15.4600   -2.4780   77.5440 C   0  0  0  0  0  2  0  0  0  0  0  0
   14.2910   -1.0890   75.2270 C   0  0  0  0  0  2  0  0  0  0  0  0
   15.8670   -1.0420   77.2160 C   0  0  0  0  0  2  0  0  0  0  0  0
   14.7740   -0.3040   76.4490 C   0  0  0  0  0  2  0  0  0  0  0  0
  1 14  1  0  0  0  0
  2  1  1  0  0  0  0
  3  2  1  0  0  0  0
  3 10  2  0  0  0  0
  4  5  1  0  0  0  0
  4  6  1  0  0  0  0
  5  7  1  0  0  0  0
  6  8  1  0  0  0  0
  7  8  1  0  0  0  0
  7  9  1  6  0  0  0
  8  3  1  0  0  0  0
  9 10  1  0  0  0  0
 11  4  1  0  0  0  0
 12  4  1  0  0  0  0
 13  5  1  0  0  0  0
 14 15  1  0  0  0  0
 14 23  1  0  0  0  0
 15 16  1  0  0  0  0
 15 17  1  0  0  0  0
 17 19  1  0  0  0  0
 18 17  1  0  0  0  0
 18 20  1  0  0  0  0
 19 21  1  0  0  0  0
 20 22  1  0  0  0  0
 22 21  1  0  0  0  0
 23 24  1  0  0  0  0
 25 23  1  0  0  0  0
 25 27  1  0  0  0  0
 26 25  1  0  0  0  0
 28 26  1  0  0  0  0
 28 30  1  0  0  0  0
 29 27  1  0  0  0  0
 30 29  1  0  0  0  0
M  END
>  <MODEL>
9

>  <REMARK>
 VINA RESULT:    -5.041      1.885      5.240
 INTER + INTRA:          -8.292
 INTER:                  -7.540
 INTRA:                  -0.752
 UNBOUND:                -1.188
 SMILES CC1(C)CN2[C@H](CSC(NC3CCCCC3)NC3CCCCC3)CS[C@@H]2N1
 SMILES IDX 8 1 7 2 6 3 2 4 27 5 4 6 26 7 5 8 25 9 24 10 1 11 3 12 9 14
 SMILES IDX 10 15 11 17 12 18 16 19 13 20 15 21 14 22 17 23 18 25 19 26
 SMILES IDX 23 27 20 28 22 29 21 30
 H PARENT 27 13 10 16 17 24

>  <TORSDO>
F 7

$$$$
D:\Codex\projectless-workspaces\2026-08-22\non\work\whynot17\analysis\dinp_crc_structural_pipeline\outputs\stage2_refine_and_rescue\cxcr4_refinement\it1t_s0.70_e32_seed3002.pdbqt
 OpenBabel09032623223D

 30 33  0  0  1  0  0  0  0  0999 V2000
   15.0410   -4.9340   73.9240 S   0  0  0  0  0  0  0  0  0  0  0  0
   15.3960   -6.6600   73.8010 C   0  0  0  0  0  2  0  0  0  0  0  0
   14.1270   -7.3690   73.3940 C   0  0  0  0  0  0  0  0  0  0  0  0
   13.1990   -7.4640   69.8760 C   0  0  0  0  0  0  0  0  0  0  0  0
   12.1920   -8.1450   70.6910 N   0  0  0  0  0  0  0  0  0  0  0  0
   14.1980   -6.8520   70.8710 C   0  0  0  0  0  2  0  0  0  0  0  0
   12.5610   -8.0540   71.9760 C   0  0  2  0  0  3  0  0  0  0  0  0
   13.6880   -7.4100   72.1110 N   0  0  0  0  0  0  0  0  0  0  0  0
   11.9850   -8.8010   73.4060 S   0  0  0  0  0  0  0  0  0  0  0  0
   13.3010   -8.0850   74.2940 C   0  0  0  0  0  3  0  0  0  0  0  0
   12.5290   -6.3710   69.0560 C   0  0  0  0  0  1  0  0  0  0  0  0
   13.9130   -8.4800   68.9890 C   0  0  0  0  0  1  0  0  0  0  0  0
   11.2750   -7.6950   70.5580 H   0  0  0  0  0  0  0  0  0  0  0  0
   14.3000   -4.6550   75.3970 C   0  0  0  0  0  3  0  0  0  0  0  0
   13.7300   -3.4550   75.5450 N   0  0  0  0  0  0  0  0  0  0  0  0
   13.4870   -3.1720   74.5850 H   0  0  0  0  0  0  0  0  0  0  0  0
   14.2530   -2.2400   76.1520 C   0  0  0  0  0  3  0  0  0  0  0  0
   13.8970   -0.9550   75.4200 C   0  0  0  0  0  2  0  0  0  0  0  0
   15.7070   -2.2300   76.5980 C   0  0  0  0  0  2  0  0  0  0  0  0
   14.0470    0.2270   76.3760 C   0  0  0  0  0  2  0  0  0  0  0  0
   15.9380   -1.0500   77.5450 C   0  0  0  0  0  2  0  0  0  0  0  0
   15.4420    0.2990   77.0020 C   0  0  0  0  0  2  0  0  0  0  0  0
   14.3080   -5.5870   76.3600 N   0  0  0  0  0  0  0  0  0  0  0  0
   13.4330   -5.4350   76.8830 H   0  0  0  0  0  0  0  0  0  0  0  0
   15.3310   -5.7850   77.3880 C   0  0  0  0  0  3  0  0  0  0  0  0
   15.0110   -5.3040   78.8020 C   0  0  0  0  0  2  0  0  0  0  0  0
   15.8810   -7.2060   77.4190 C   0  0  0  0  0  2  0  0  0  0  0  0
   16.2570   -5.3640   79.6840 C   0  0  0  0  0  2  0  0  0  0  0  0
   17.1460   -7.2790   78.2750 C   0  0  0  0  0  2  0  0  0  0  0  0
   16.9080   -6.7490   79.6860 C   0  0  0  0  0  2  0  0  0  0  0  0
  1 14  1  0  0  0  0
  2  1  1  0  0  0  0
  3  2  1  0  0  0  0
  3 10  2  0  0  0  0
  4  5  1  0  0  0  0
  4  6  1  0  0  0  0
  5  7  1  0  0  0  0
  6  8  1  0  0  0  0
  7  8  1  0  0  0  0
  7  9  1  6  0  0  0
  8  3  1  0  0  0  0
  9 10  1  0  0  0  0
 11  4  1  0  0  0  0
 12  4  1  0  0  0  0
 13  5  1  0  0  0  0
 14 15  1  0  0  0  0
 14 23  1  0  0  0  0
 15 17  1  0  0  0  0
 16 15  1  0  0  0  0
 17 19  1  0  0  0  0
 18 17  1  0  0  0  0
 18 20  1  0  0  0  0
 19 21  1  0  0  0  0
 20 22  1  0  0  0  0
 22 21  1  0  0  0  0
 23 24  1  0  0  0  0
 23 25  1  0  0  0  0
 25 27  1  0  0  0  0
 25 26  1  0  0  0  0
 26 28  1  0  0  0  0
 27 29  1  0  0  0  0
 28 30  1  0  0  0  0
 29 30  1  0  0  0  0
M  END
>  <MODEL>
10

>  <REMARK>
 VINA RESULT:    -4.995      1.959      2.824
 INTER + INTRA:          -8.227
 INTER:                  -7.245
 INTRA:                  -0.982
 UNBOUND:                -1.188
 SMILES CC1(C)CN2[C@H](CSC(NC3CCCCC3)NC3CCCCC3)CS[C@@H]2N1
 SMILES IDX 8 1 7 2 6 3 2 4 27 5 4 6 26 7 5 8 25 9 24 10 1 11 3 12 9 14
 SMILES IDX 10 15 11 17 12 18 16 19 13 20 15 21 14 22 17 23 18 25 19 26
 SMILES IDX 23 27 20 28 22 29 21 30
 H PARENT 27 13 10 16 17 24

>  <TORSDO>
F 7

$$$$
D:\Codex\projectless-workspaces\2026-08-22\non\work\whynot17\analysis\dinp_crc_structural_pipeline\outputs\stage2_refine_and_rescue\cxcr4_refinement\it1t_s0.70_e32_seed3002.pdbqt
 OpenBabel09032623223D

 30 33  0  0  1  0  0  0  0  0999 V2000
   14.1970   -4.9220   78.0180 S   0  0  0  0  0  0  0  0  0  0  0  0
   15.4840   -3.7140   78.0170 C   0  0  0  0  0  2  0  0  0  0  0  0
   14.9130   -2.4240   77.4790 C   0  0  0  0  0  0  0  0  0  0  0  0
   14.3900   -2.0770   73.8940 C   0  0  0  0  0  0  0  0  0  0  0  0
   14.0050   -0.8500   74.5890 N   0  0  0  0  0  0  0  0  0  0  0  0
   15.0000   -2.9930   74.9660 C   0  0  0  0  0  2  0  0  0  0  0  0
   14.2470   -1.0150   75.8970 C   0  0  2  0  0  3  0  0  0  0  0  0
   14.7310   -2.1990   76.1530 N   0  0  0  0  0  0  0  0  0  0  0  0
   13.8320   -0.0940   77.2810 S   0  0  0  0  0  0  0  0  0  0  0  0
   14.4810   -1.3520   78.2960 C   0  0  0  0  0  3  0  0  0  0  0  0
   15.4230   -1.7490   72.8250 C   0  0  0  0  0  1  0  0  0  0  0  0
   13.1500   -2.7390   73.2970 C   0  0  0  0  0  1  0  0  0  0  0  0
   14.5570   -0.0580   74.2300 H   0  0  0  0  0  0  0  0  0  0  0  0
   14.5990   -6.1170   76.9210 C   0  0  0  0  0  3  0  0  0  0  0  0
   15.2510   -7.1720   77.4200 N   0  0  0  0  0  0  0  0  0  0  0  0
   14.7540   -7.3840   78.2960 H   0  0  0  0  0  0  0  0  0  0  0  0
   16.6570   -7.3250   77.7630 C   0  0  0  0  0  3  0  0  0  0  0  0
   17.0260   -6.8680   79.1670 C   0  0  0  0  0  2  0  0  0  0  0  0
   17.6960   -6.8710   76.7510 C   0  0  0  0  0  2  0  0  0  0  0  0
   18.3440   -7.5210   79.5790 C   0  0  0  0  0  2  0  0  0  0  0  0
   19.0570   -7.4700   77.1170 C   0  0  0  0  0  2  0  0  0  0  0  0
   19.4700   -7.2450   78.5800 C   0  0  0  0  0  2  0  0  0  0  0  0
   14.2930   -5.9930   75.6220 N   0  0  0  0  0  0  0  0  0  0  0  0
   13.4010   -5.4780   75.6080 H   0  0  0  0  0  0  0  0  0  0  0  0
   14.1180   -7.0730   74.6490 C   0  0  0  0  0  3  0  0  0  0  0  0
   12.6890   -7.4990   74.3190 C   0  0  0  0  0  2  0  0  0  0  0  0
   14.9210   -6.8630   73.3700 C   0  0  0  0  0  2  0  0  0  0  0  0
   12.6900   -8.7790   73.4850 C   0  0  0  0  0  2  0  0  0  0  0  0
   14.9570   -8.1430   72.5370 C   0  0  0  0  0  2  0  0  0  0  0  0
   13.5540   -8.6580   72.2280 C   0  0  0  0  0  2  0  0  0  0  0  0
  2  1  1  0  0  0  0
  3  2  1  0  0  0  0
  3 10  2  0  0  0  0
  4  5  1  0  0  0  0
  4  6  1  0  0  0  0
  5  7  1  0  0  0  0
  6  8  1  0  0  0  0
  7  8  1  0  0  0  0
  7  9  1  1  0  0  0
  8  3  1  0  0  0  0
  9 10  1  0  0  0  0
 11  4  1  0  0  0  0
 12  4  1  0  0  0  0
 13  5  1  0  0  0  0
 14 15  1  0  0  0  0
 14  1  1  0  0  0  0
 15 17  1  0  0  0  0
 15 16  1  0  0  0  0
 17 18  1  0  0  0  0
 18 20  1  0  0  0  0
 19 21  1  0  0  0  0
 19 17  1  0  0  0  0
 21 22  1  0  0  0  0
 22 20  1  0  0  0  0
 23 14  1  0  0  0  0
 24 23  1  0  0  0  0
 25 23  1  0  0  0  0
 26 25  1  0  0  0  0
 27 25  1  0  0  0  0
 28 26  1  0  0  0  0
 29 27  1  0  0  0  0
 30 29  1  0  0  0  0
 30 28  1  0  0  0  0
M  END
>  <MODEL>
11

>  <REMARK>
 VINA RESULT:    -4.991      1.823      6.011
 INTER + INTRA:          -8.221
 INTER:                  -7.284
 INTRA:                  -0.937
 UNBOUND:                -1.188
 SMILES CC1(C)CN2[C@H](CSC(NC3CCCCC3)NC3CCCCC3)CS[C@@H]2N1
 SMILES IDX 8 1 7 2 6 3 2 4 27 5 4 6 26 7 5 8 25 9 24 10 1 11 3 12 9 14
 SMILES IDX 10 15 11 17 12 18 16 19 13 20 15 21 14 22 17 23 18 25 19 26
 SMILES IDX 23 27 20 28 22 29 21 30
 H PARENT 27 13 10 16 17 24

>  <TORSDO>
F 7

$$$$
D:\Codex\projectless-workspaces\2026-08-22\non\work\whynot17\analysis\dinp_crc_structural_pipeline\outputs\stage2_refine_and_rescue\cxcr4_refinement\it1t_s0.70_e32_seed3002.pdbqt
 OpenBabel09032623223D

 30 33  0  0  1  0  0  0  0  0999 V2000
   15.1960   -5.5380   74.2650 S   0  0  0  0  0  0  0  0  0  0  0  0
   14.8920   -7.0540   75.1180 C   0  0  0  0  0  2  0  0  0  0  0  0
   15.3130   -6.8720   76.5560 C   0  0  0  0  0  0  0  0  0  0  0  0
   12.7670   -6.2860   79.0900 C   0  0  0  0  0  0  0  0  0  0  0  0
   14.1000   -6.2770   79.6910 N   0  0  0  0  0  0  0  0  0  0  0  0
   12.9920   -6.4090   77.5750 C   0  0  0  0  0  2  0  0  0  0  0  0
   15.0010   -6.4620   78.7170 C   0  0  2  0  0  3  0  0  0  0  0  0
   14.4300   -6.6050   77.5520 N   0  0  0  0  0  0  0  0  0  0  0  0
   16.6840   -6.7810   78.7360 S   0  0  0  0  0  0  0  0  0  0  0  0
   16.6490   -7.0000   77.0080 C   0  0  0  0  0  3  0  0  0  0  0  0
   12.0560   -4.9800   79.4170 C   0  0  0  0  0  1  0  0  0  0  0  0
   11.9850   -7.4970   79.5940 C   0  0  0  0  0  1  0  0  0  0  0  0
   14.2670   -5.3720   80.1530 H   0  0  0  0  0  0  0  0  0  0  0  0
   13.7220   -4.8730   73.8370 C   0  0  0  0  0  3  0  0  0  0  0  0
   12.7630   -5.7440   73.5080 N   0  0  0  0  0  0  0  0  0  0  0  0
   12.6720   -6.3440   74.3390 H   0  0  0  0  0  0  0  0  0  0  0  0
   12.6880   -6.6730   72.3900 C   0  0  0  0  0  3  0  0  0  0  0  0
   11.9860   -6.1300   71.1530 C   0  0  0  0  0  2  0  0  0  0  0  0
   12.2620   -8.1040   72.6740 C   0  0  0  0  0  2  0  0  0  0  0  0
   12.4020   -6.9540   69.9360 C   0  0  0  0  0  2  0  0  0  0  0  0
   12.6270   -8.9880   71.4790 C   0  0  0  0  0  2  0  0  0  0  0  0
   12.1390   -8.4490   70.1250 C   0  0  0  0  0  2  0  0  0  0  0  0
   13.5450   -3.5450   73.8150 N   0  0  0  0  0  0  0  0  0  0  0  0
   14.2680   -3.1910   73.1720 H   0  0  0  0  0  0  0  0  0  0  0  0
   13.5790   -2.6300   74.9570 C   0  0  0  0  0  3  0  0  0  0  0  0
   13.0580   -3.1540   76.2940 C   0  0  0  0  0  2  0  0  0  0  0  0
   14.9300   -1.9480   75.1390 C   0  0  0  0  0  2  0  0  0  0  0  0
   12.9390   -2.0150   77.3060 C   0  0  0  0  0  2  0  0  0  0  0  0
   14.8220   -0.7880   76.1280 C   0  0  0  0  0  2  0  0  0  0  0  0
   14.2450   -1.2350   77.4680 C   0  0  0  0  0  2  0  0  0  0  0  0
  1  2  1  0  0  0  0
  2  3  1  0  0  0  0
  3 10  2  0  0  0  0
  3  8  1  0  0  0  0
  4 11  1  0  0  0  0
  4 12  1  0  0  0  0
  4  5  1  0  0  0  0
  5 13  1  0  0  0  0
  6  4  1  0  0  0  0
  7  9  1  1  0  0  0
  7  5  1  0  0  0  0
  8  6  1  0  0  0  0
  8  7  1  0  0  0  0
 10  9  1  0  0  0  0
 14  1  1  0  0  0  0
 15 14  1  0  0  0  0
 15 16  1  0  0  0  0
 17 19  1  0  0  0  0
 17 15  1  0  0  0  0
 18 17  1  0  0  0  0
 20 22  1  0  0  0  0
 20 18  1  0  0  0  0
 21 19  1  0  0  0  0
 22 21  1  0  0  0  0
 23 14  1  0  0  0  0
 23 25  1  0  0  0  0
 24 23  1  0  0  0  0
 25 27  1  0  0  0  0
 25 26  1  0  0  0  0
 26 28  1  0  0  0  0
 27 29  1  0  0  0  0
 28 30  1  0  0  0  0
 29 30  1  0  0  0  0
M  END
>  <MODEL>
12

>  <REMARK>
 VINA RESULT:    -4.937      2.139      6.822
 INTER + INTRA:          -8.145
 INTER:                  -7.062
 INTRA:                  -1.083
 UNBOUND:                -1.188
 SMILES CC1(C)CN2[C@H](CSC(NC3CCCCC3)NC3CCCCC3)CS[C@@H]2N1
 SMILES IDX 8 1 7 2 6 3 2 4 27 5 4 6 26 7 5 8 25 9 24 10 1 11 3 12 9 14
 SMILES IDX 10 15 11 17 12 18 16 19 13 20 15 21 14 22 17 23 18 25 19 26
 SMILES IDX 23 27 20 28 22 29 21 30
 H PARENT 27 13 10 16 17 24

>  <TORSDO>
F 7

$$$$
D:\Codex\projectless-workspaces\2026-08-22\non\work\whynot17\analysis\dinp_crc_structural_pipeline\outputs\stage2_refine_and_rescue\cxcr4_refinement\it1t_s0.70_e32_seed3002.pdbqt
 OpenBabel09032623223D

 30 33  0  0  1  0  0  0  0  0999 V2000
   14.8970   -5.3760   73.9250 S   0  0  0  0  0  0  0  0  0  0  0  0
   14.6130   -7.0090   74.5340 C   0  0  0  0  0  2  0  0  0  0  0  0
   13.8520   -6.8970   75.8320 C   0  0  0  0  0  0  0  0  0  0  0  0
   15.5150   -5.4910   78.7480 C   0  0  0  0  0  0  0  0  0  0  0  0
   14.1490   -5.8920   79.0810 N   0  0  0  0  0  0  0  0  0  0  0  0
   15.7490   -5.9590   77.3030 C   0  0  0  0  0  2  0  0  0  0  0  0
   13.5920   -6.4320   77.9880 C   0  0  2  0  0  3  0  0  0  0  0  0
   14.4140   -6.4270   76.9740 N   0  0  0  0  0  0  0  0  0  0  0  0
   11.9850   -6.8910   77.6090 S   0  0  0  0  0  0  0  0  0  0  0  0
   12.4830   -7.2300   75.9740 C   0  0  0  0  0  3  0  0  0  0  0  0
   16.4890   -6.1820   79.6930 C   0  0  0  0  0  1  0  0  0  0  0  0
   15.6370   -3.9710   78.8230 C   0  0  0  0  0  1  0  0  0  0  0  0
   14.1650   -6.5850   79.8420 H   0  0  0  0  0  0  0  0  0  0  0  0
   13.4570   -4.7850   73.3170 C   0  0  0  0  0  3  0  0  0  0  0  0
   12.6210   -5.6960   72.8080 N   0  0  0  0  0  0  0  0  0  0  0  0
   12.4990   -6.3780   73.5690 H   0  0  0  0  0  0  0  0  0  0  0  0
   12.7490   -6.5180   71.6130 C   0  0  0  0  0  3  0  0  0  0  0  0
   12.3870   -5.8150   70.3120 C   0  0  0  0  0  2  0  0  0  0  0  0
   12.1820   -7.9280   71.6480 C   0  0  0  0  0  2  0  0  0  0  0  0
   13.0200   -6.5650   69.1420 C   0  0  0  0  0  2  0  0  0  0  0  0
   12.7580   -8.7350   70.4810 C   0  0  0  0  0  2  0  0  0  0  0  0
   12.6300   -8.0440   69.1150 C   0  0  0  0  0  2  0  0  0  0  0  0
   13.1880   -3.4720   73.3320 N   0  0  0  0  0  0  0  0  0  0  0  0
   13.8630   -3.0550   72.6750 H   0  0  0  0  0  0  0  0  0  0  0  0
   13.1950   -2.5830   74.4940 C   0  0  0  0  0  3  0  0  0  0  0  0
   12.9170   -3.2070   75.8600 C   0  0  0  0  0  2  0  0  0  0  0  0
   14.4280   -1.6880   74.5560 C   0  0  0  0  0  2  0  0  0  0  0  0
   12.7240   -2.1200   76.9170 C   0  0  0  0  0  2  0  0  0  0  0  0
   14.2390   -0.5770   75.5890 C   0  0  0  0  0  2  0  0  0  0  0  0
   13.8940   -1.1350   76.9660 C   0  0  0  0  0  2  0  0  0  0  0  0
  1  2  1  0  0  0  0
  2  3  1  0  0  0  0
  3 10  2  0  0  0  0
  3  8  1  0  0  0  0
  4 12  1  0  0  0  0
  4  5  1  0  0  0  0
  4 11  1  0  0  0  0
  5 13  1  0  0  0  0
  6  4  1  0  0  0  0
  7  9  1  6  0  0  0
  7  5  1  0  0  0  0
  8  6  1  0  0  0  0
  8  7  1  0  0  0  0
 10  9  1  0  0  0  0
 14 23  1  0  0  0  0
 14  1  1  0  0  0  0
 15 14  1  0  0  0  0
 15 16  1  0  0  0  0
 17 19  1  0  0  0  0
 17 15  1  0  0  0  0
 18 17  1  0  0  0  0
 20 18  1  0  0  0  0
 21 19  1  0  0  0  0
 22 20  1  0  0  0  0
 22 21  1  0  0  0  0
 23 25  1  0  0  0  0
 24 23  1  0  0  0  0
 25 27  1  0  0  0  0
 25 26  1  0  0  0  0
 26 28  1  0  0  0  0
 27 29  1  0  0  0  0
 28 30  1  0  0  0  0
 29 30  1  0  0  0  0
M  END
>  <MODEL>
13

>  <REMARK>
 VINA RESULT:    -4.936      1.977      6.864
 INTER + INTRA:          -8.144
 INTER:                  -7.109
 INTRA:                  -1.035
 UNBOUND:                -1.188
 SMILES CC1(C)CN2[C@H](CSC(NC3CCCCC3)NC3CCCCC3)CS[C@@H]2N1
 SMILES IDX 8 1 7 2 6 3 2 4 27 5 4 6 26 7 5 8 25 9 24 10 1 11 3 12 9 14
 SMILES IDX 10 15 11 17 12 18 16 19 13 20 15 21 14 22 17 23 18 25 19 26
 SMILES IDX 23 27 20 28 22 29 21 30
 H PARENT 27 13 10 16 17 24

>  <TORSDO>
F 7

$$$$
D:\Codex\projectless-workspaces\2026-08-22\non\work\whynot17\analysis\dinp_crc_structural_pipeline\outputs\stage2_refine_and_rescue\cxcr4_refinement\it1t_s0.70_e32_seed3002.pdbqt
 OpenBabel09032623223D

 30 33  0  0  1  0  0  0  0  0999 V2000
   13.9900   -5.1020   75.4970 S   0  0  0  0  0  0  0  0  0  0  0  0
   12.3360   -5.3800   74.9450 C   0  0  0  0  0  2  0  0  0  0  0  0
   12.3870   -5.7370   73.4790 C   0  0  0  0  0  0  0  0  0  0  0  0
   13.3840   -9.1000   72.5080 C   0  0  0  0  0  0  0  0  0  0  0  0
   13.1130   -8.2840   71.3250 N   0  0  0  0  0  0  0  0  0  0  0  0
   13.2660   -8.1490   73.7090 C   0  0  0  0  0  2  0  0  0  0  0  0
   12.7840   -7.0510   71.7330 C   0  0  2  0  0  3  0  0  0  0  0  0
   12.7920   -6.9540   73.0340 N   0  0  0  0  0  0  0  0  0  0  0  0
   12.1420   -5.6890   70.9150 S   0  0  0  0  0  0  0  0  0  0  0  0
   11.9870   -4.8630   72.4400 C   0  0  0  0  0  3  0  0  0  0  0  0
   14.7930   -9.6690   72.4180 C   0  0  0  0  0  1  0  0  0  0  0  0
   12.3340  -10.2040   72.6210 C   0  0  0  0  0  1  0  0  0  0  0  0
   13.9530   -8.2430   70.7310 H   0  0  0  0  0  0  0  0  0  0  0  0
   13.9560   -4.8450   77.1480 C   0  0  0  0  0  3  0  0  0  0  0  0
   14.4510   -5.8310   77.9030 N   0  0  0  0  0  0  0  0  0  0  0  0
   14.0720   -5.6440   78.8420 H   0  0  0  0  0  0  0  0  0  0  0  0
   15.8330   -6.2170   78.1480 C   0  0  0  0  0  3  0  0  0  0  0  0
   16.4240   -7.1680   77.1170 C   0  0  0  0  0  2  0  0  0  0  0  0
   16.2230   -6.6290   79.5580 C   0  0  0  0  0  2  0  0  0  0  0  0
   17.9490   -7.0960   77.1820 C   0  0  0  0  0  2  0  0  0  0  0  0
   17.7480   -6.6040   79.6900 C   0  0  0  0  0  2  0  0  0  0  0  0
   18.4870   -7.3760   78.5860 C   0  0  0  0  0  2  0  0  0  0  0  0
   13.4390   -3.7190   77.6610 N   0  0  0  0  0  0  0  0  0  0  0  0
   12.5240   -3.6130   77.2000 H   0  0  0  0  0  0  0  0  0  0  0  0
   14.0330   -2.3820   77.6300 C   0  0  0  0  0  3  0  0  0  0  0  0
   15.5430   -2.2770   77.8350 C   0  0  0  0  0  2  0  0  0  0  0  0
   13.6000   -1.5610   76.4210 C   0  0  0  0  0  2  0  0  0  0  0  0
   15.9600   -0.8180   78.0150 C   0  0  0  0  0  2  0  0  0  0  0  0
   13.9840   -0.0920   76.5980 C   0  0  0  0  0  2  0  0  0  0  0  0
   15.4750    0.0760   76.8720 C   0  0  0  0  0  2  0  0  0  0  0  0
  1 14  1  0  0  0  0
  2  1  1  0  0  0  0
  3  2  1  0  0  0  0
  4 12  1  0  0  0  0
  4  6  1  0  0  0  0
  5  7  1  0  0  0  0
  5  4  1  0  0  0  0
  7  9  1  1  0  0  0
  7  8  1  0  0  0  0
  8  3  1  0  0  0  0
  8  6  1  0  0  0  0
  9 10  1  0  0  0  0
 10  3  2  0  0  0  0
 11  4  1  0  0  0  0
 13  5  1  0  0  0  0
 14 23  1  0  0  0  0
 14 15  1  0  0  0  0
 15 17  1  0  0  0  0
 15 16  1  0  0  0  0
 17 19  1  0  0  0  0
 18 20  1  0  0  0  0
 18 17  1  0  0  0  0
 19 21  1  0  0  0  0
 20 22  1  0  0  0  0
 22 21  1  0  0  0  0
 24 23  1  0  0  0  0
 25 23  1  0  0  0  0
 25 26  1  0  0  0  0
 26 28  1  0  0  0  0
 27 29  1  0  0  0  0
 27 25  1  0  0  0  0
 29 30  1  0  0  0  0
 30 28  1  0  0  0  0
M  END
>  <MODEL>
14

>  <REMARK>
 VINA RESULT:    -4.865      1.418      4.772
 INTER + INTRA:          -8.044
 INTER:                  -7.326
 INTRA:                  -0.718
 UNBOUND:                -1.188
 SMILES CC1(C)CN2[C@H](CSC(NC3CCCCC3)NC3CCCCC3)CS[C@@H]2N1
 SMILES IDX 8 1 7 2 6 3 2 4 27 5 4 6 26 7 5 8 25 9 24 10 1 11 3 12 9 14
 SMILES IDX 10 15 11 17 12 18 16 19 13 20 15 21 14 22 17 23 18 25 19 26
 SMILES IDX 23 27 20 28 22 29 21 30
 H PARENT 27 13 10 16 17 24

>  <TORSDO>
F 7

$$$$
D:\Codex\projectless-workspaces\2026-08-22\non\work\whynot17\analysis\dinp_crc_structural_pipeline\outputs\stage2_refine_and_rescue\cxcr4_refinement\it1t_s0.70_e32_seed3002.pdbqt
 OpenBabel09032623223D

 30 33  0  0  1  0  0  0  0  0999 V2000
   14.6020   -5.1790   74.0400 S   0  0  0  0  0  0  0  0  0  0  0  0
   13.3520   -3.9320   74.0180 C   0  0  0  0  0  2  0  0  0  0  0  0
   13.0540   -3.5450   75.4470 C   0  0  0  0  0  0  0  0  0  0  0  0
   14.8580   -0.7600   76.9410 C   0  0  0  0  0  0  0  0  0  0  0  0
   13.9360   -1.3520   77.9090 N   0  0  0  0  0  0  0  0  0  0  0  0
   14.7910   -1.6570   75.6960 C   0  0  0  0  0  2  0  0  0  0  0  0
   13.3230   -2.3900   77.3240 C   0  0  2  0  0  3  0  0  0  0  0  0
   13.7150   -2.5500   76.0900 N   0  0  0  0  0  0  0  0  0  0  0  0
   11.9920   -3.3650   77.7870 S   0  0  0  0  0  0  0  0  0  0  0  0
   12.0440   -4.1490   76.2330 C   0  0  0  0  0  3  0  0  0  0  0  0
   16.2660   -0.7600   77.5200 C   0  0  0  0  0  1  0  0  0  0  0  0
   14.3930    0.6500   76.5860 C   0  0  0  0  0  1  0  0  0  0  0  0
   14.4580   -1.6760   78.7350 H   0  0  0  0  0  0  0  0  0  0  0  0
   13.8880   -6.6290   74.4710 C   0  0  0  0  0  3  0  0  0  0  0  0
   12.8540   -7.0170   73.7180 N   0  0  0  0  0  0  0  0  0  0  0  0
   12.4780   -7.8380   74.2110 H   0  0  0  0  0  0  0  0  0  0  0  0
   12.8110   -7.3960   72.3130 C   0  0  0  0  0  3  0  0  0  0  0  0
   12.4300   -6.2740   71.3590 C   0  0  0  0  0  2  0  0  0  0  0  0
   12.1070   -8.6910   71.9420 C   0  0  0  0  0  2  0  0  0  0  0  0
   12.8970   -6.6300   69.9490 C   0  0  0  0  0  2  0  0  0  0  0  0
   12.5120   -9.0990   70.5220 C   0  0  0  0  0  2  0  0  0  0  0  0
   12.3570   -7.9820   69.4790 C   0  0  0  0  0  2  0  0  0  0  0  0
   14.3320   -7.3300   75.5230 N   0  0  0  0  0  0  0  0  0  0  0  0
   13.6070   -8.0420   75.6930 H   0  0  0  0  0  0  0  0  0  0  0  0
   14.6690   -6.8130   76.8500 C   0  0  0  0  0  3  0  0  0  0  0  0
   13.6450   -7.0130   77.9650 C   0  0  0  0  0  2  0  0  0  0  0  0
   16.0580   -7.2290   77.3210 C   0  0  0  0  0  2  0  0  0  0  0  0
   14.0390   -6.2140   79.2060 C   0  0  0  0  0  2  0  0  0  0  0  0
   16.4810   -6.4180   78.5460 C   0  0  0  0  0  2  0  0  0  0  0  0
   15.4620   -6.5250   79.6760 C   0  0  0  0  0  2  0  0  0  0  0  0
  1 14  1  0  0  0  0
  2  1  1  0  0  0  0
  2  3  1  0  0  0  0
  3  8  1  0  0  0  0
  3 10  2  0  0  0  0
  4 11  1  0  0  0  0
  4  5  1  0  0  0  0
  5 13  1  0  0  0  0
  6  8  1  0  0  0  0
  6  4  1  0  0  0  0
  7  9  1  6  0  0  0
  7  5  1  0  0  0  0
  8  7  1  0  0  0  0
 10  9  1  0  0  0  0
 12  4  1  0  0  0  0
 14 23  1  0  0  0  0
 15 16  1  0  0  0  0
 15 14  1  0  0  0  0
 17 15  1  0  0  0  0
 18 17  1  0  0  0  0
 19 17  1  0  0  0  0
 20 18  1  0  0  0  0
 21 19  1  0  0  0  0
 22 20  1  0  0  0  0
 22 21  1  0  0  0  0
 23 24  1  0  0  0  0
 23 25  1  0  0  0  0
 25 27  1  0  0  0  0
 25 26  1  0  0  0  0
 26 28  1  0  0  0  0
 27 29  1  0  0  0  0
 28 30  1  0  0  0  0
 29 30  1  0  0  0  0
M  END
>  <MODEL>
15

>  <REMARK>
 VINA RESULT:    -4.858      1.889      6.293
 INTER + INTRA:          -8.034
 INTER:                  -7.002
 INTRA:                  -1.032
 UNBOUND:                -1.188
 SMILES CC1(C)CN2[C@H](CSC(NC3CCCCC3)NC3CCCCC3)CS[C@@H]2N1
 SMILES IDX 8 1 7 2 6 3 2 4 27 5 4 6 26 7 5 8 25 9 24 10 1 11 3 12 9 14
 SMILES IDX 10 15 11 17 12 18 16 19 13 20 15 21 14 22 17 23 18 25 19 26
 SMILES IDX 23 27 20 28 22 29 21 30
 H PARENT 27 13 10 16 17 24

>  <TORSDO>
F 7

$$$$
D:\Codex\projectless-workspaces\2026-08-22\non\work\whynot17\analysis\dinp_crc_structural_pipeline\outputs\stage2_refine_and_rescue\cxcr4_refinement\it1t_s0.70_e32_seed3002.pdbqt
 OpenBabel09032623223D

 30 33  0  0  1  0  0  0  0  0999 V2000
   14.9430   -5.5180   73.9620 S   0  0  0  0  0  0  0  0  0  0  0  0
   14.6020   -7.1570   74.5230 C   0  0  0  0  0  2  0  0  0  0  0  0
   13.8460   -7.0560   75.8260 C   0  0  0  0  0  0  0  0  0  0  0  0
   15.5480   -5.7510   78.7660 C   0  0  0  0  0  0  0  0  0  0  0  0
   14.1740   -6.1280   79.0950 N   0  0  0  0  0  0  0  0  0  0  0  0
   15.7670   -6.1920   77.3110 C   0  0  0  0  0  2  0  0  0  0  0  0
   13.6020   -6.6320   77.9930 C   0  0  2  0  0  3  0  0  0  0  0  0
   14.4210   -6.6240   76.9760 N   0  0  0  0  0  0  0  0  0  0  0  0
   11.9850   -7.0470   77.6080 S   0  0  0  0  0  0  0  0  0  0  0  0
   12.4710   -7.3620   75.9650 C   0  0  0  0  0  3  0  0  0  0  0  0
   16.5080   -6.4830   79.6930 C   0  0  0  0  0  1  0  0  0  0  0  0
   15.7030   -4.2360   78.8730 C   0  0  0  0  0  1  0  0  0  0  0  0
   14.1770   -6.8380   79.8410 H   0  0  0  0  0  0  0  0  0  0  0  0
   13.5210   -4.8550   73.3850 C   0  0  0  0  0  3  0  0  0  0  0  0
   13.3840   -3.5350   73.5480 N   0  0  0  0  0  0  0  0  0  0  0  0
   14.1370   -3.1310   72.9740 H   0  0  0  0  0  0  0  0  0  0  0  0
   13.3990   -2.7380   74.7660 C   0  0  0  0  0  3  0  0  0  0  0  0
   14.6940   -1.9790   75.0170 C   0  0  0  0  0  2  0  0  0  0  0  0
   12.8810   -3.3730   76.0450 C   0  0  0  0  0  2  0  0  0  0  0  0
   14.4250   -0.8320   75.9910 C   0  0  0  0  0  2  0  0  0  0  0  0
   12.6110   -2.2790   77.0820 C   0  0  0  0  0  2  0  0  0  0  0  0
   13.7860   -1.3120   77.2950 C   0  0  0  0  0  2  0  0  0  0  0  0
   12.5830   -5.6240   72.8140 N   0  0  0  0  0  0  0  0  0  0  0  0
   12.2350   -6.2260   73.5740 H   0  0  0  0  0  0  0  0  0  0  0  0
   12.7530   -6.5220   71.6710 C   0  0  0  0  0  3  0  0  0  0  0  0
   12.2370   -7.9510   71.8160 C   0  0  0  0  0  2  0  0  0  0  0  0
   12.2800   -5.9140   70.3550 C   0  0  0  0  0  2  0  0  0  0  0  0
   12.7040   -8.8120   70.6430 C   0  0  0  0  0  2  0  0  0  0  0  0
   12.7630   -6.7470   69.1690 C   0  0  0  0  0  2  0  0  0  0  0  0
   12.3330   -8.2060   69.2870 C   0  0  0  0  0  2  0  0  0  0  0  0
  1  2  1  0  0  0  0
  2  3  1  0  0  0  0
  3 10  2  0  0  0  0
  3  8  1  0  0  0  0
  4 12  1  0  0  0  0
  4  5  1  0  0  0  0
  4 11  1  0  0  0  0
  5 13  1  0  0  0  0
  6  4  1  0  0  0  0
  7  9  1  6  0  0  0
  7  5  1  0  0  0  0
  8  6  1  0  0  0  0
  8  7  1  0  0  0  0
 10  9  1  0  0  0  0
 14 15  1  0  0  0  0
 14  1  1  0  0  0  0
 15 17  1  0  0  0  0
 16 15  1  0  0  0  0
 17 18  1  0  0  0  0
 17 19  1  0  0  0  0
 18 20  1  0  0  0  0
 19 21  1  0  0  0  0
 20 22  1  0  0  0  0
 21 22  1  0  0  0  0
 23 14  1  0  0  0  0
 23 24  1  0  0  0  0
 25 26  1  0  0  0  0
 25 23  1  0  0  0  0
 27 25  1  0  0  0  0
 28 26  1  0  0  0  0
 29 30  1  0  0  0  0
 29 27  1  0  0  0  0
 30 28  1  0  0  0  0
M  END
>  <MODEL>
16

>  <REMARK>
 VINA RESULT:    -4.800      1.941      6.292
 INTER + INTRA:          -7.952
 INTER:                  -6.827
 INTRA:                  -1.125
 UNBOUND:                -1.188
 SMILES CC1(C)CN2[C@H](CSC(NC3CCCCC3)NC3CCCCC3)CS[C@@H]2N1
 SMILES IDX 8 1 7 2 6 3 2 4 27 5 4 6 26 7 5 8 25 9 24 10 1 11 3 12 9 14
 SMILES IDX 10 15 11 17 12 18 16 19 13 20 15 21 14 22 17 23 18 25 19 26
 SMILES IDX 23 27 20 28 22 29 21 30
 H PARENT 27 13 10 16 17 24

>  <TORSDO>
F 7

$$$$
D:\Codex\projectless-workspaces\2026-08-22\non\work\whynot17\analysis\dinp_crc_structural_pipeline\outputs\stage2_refine_and_rescue\cxcr4_refinement\it1t_s0.70_e32_seed3002.pdbqt
 OpenBabel09032623223D

 30 33  0  0  1  0  0  0  0  0999 V2000
   15.8370   -5.9650   78.0230 S   0  0  0  0  0  0  0  0  0  0  0  0
   15.9270   -6.8660   76.5070 C   0  0  0  0  0  2  0  0  0  0  0  0
   14.5170   -7.1610   76.0560 C   0  0  0  0  0  0  0  0  0  0  0  0
   13.9180   -8.0520   72.5780 C   0  0  0  0  0  0  0  0  0  0  0  0
   12.6600   -8.0190   73.3230 N   0  0  0  0  0  0  0  0  0  0  0  0
   14.9960   -7.5540   73.5540 C   0  0  0  0  0  2  0  0  0  0  0  0
   12.9280   -7.6550   74.5840 C   0  0  2  0  0  3  0  0  0  0  0  0
   14.2050   -7.4550   74.7680 N   0  0  0  0  0  0  0  0  0  0  0  0
   11.9850   -7.6370   76.0140 S   0  0  0  0  0  0  0  0  0  0  0  0
   13.4020   -7.1960   76.9270 C   0  0  0  0  0  3  0  0  0  0  0  0
   13.8180   -7.1200   71.3780 C   0  0  0  0  0  1  0  0  0  0  0  0
   14.2280   -9.4860   72.1570 C   0  0  0  0  0  1  0  0  0  0  0  0
   12.0180   -7.3380   72.8930 H   0  0  0  0  0  0  0  0  0  0  0  0
   15.3290   -4.4100   77.6780 C   0  0  0  0  0  3  0  0  0  0  0  0
   15.7320   -3.9100   76.5060 N   0  0  0  0  0  0  0  0  0  0  0  0
   16.2430   -3.0540   76.7600 H   0  0  0  0  0  0  0  0  0  0  0  0
   14.9560   -3.5270   75.3360 C   0  0  0  0  0  3  0  0  0  0  0  0
   15.1380   -2.0830   74.8930 C   0  0  0  0  0  2  0  0  0  0  0  0
   13.4920   -3.9340   75.2820 C   0  0  0  0  0  2  0  0  0  0  0  0
   14.7050   -1.9450   73.4340 C   0  0  0  0  0  2  0  0  0  0  0  0
   12.9810   -3.7970   73.8450 C   0  0  0  0  0  2  0  0  0  0  0  0
   13.2740   -2.4330   73.2010 C   0  0  0  0  0  2  0  0  0  0  0  0
   14.5790   -3.7200   78.5490 N   0  0  0  0  0  0  0  0  0  0  0  0
   13.6070   -3.9730   78.3210 H   0  0  0  0  0  0  0  0  0  0  0  0
   14.5560   -2.2690   78.7390 C   0  0  0  0  0  3  0  0  0  0  0  0
   15.8570   -1.5070   78.4980 C   0  0  0  0  0  2  0  0  0  0  0  0
   13.3970   -1.5890   78.0190 C   0  0  0  0  0  2  0  0  0  0  0  0
   15.7250   -0.0590   78.9680 C   0  0  0  0  0  2  0  0  0  0  0  0
   13.2330   -0.1470   78.4990 C   0  0  0  0  0  2  0  0  0  0  0  0
   14.5220    0.6530   78.3450 C   0  0  0  0  0  2  0  0  0  0  0  0
  2  1  1  0  0  0  0
  3  2  1  0  0  0  0
  3 10  2  0  0  0  0
  4  5  1  0  0  0  0
  4  6  1  0  0  0  0
  5  7  1  0  0  0  0
  6  8  1  0  0  0  0
  7  8  1  0  0  0  0
  7  9  1  1  0  0  0
  8  3  1  0  0  0  0
  9 10  1  0  0  0  0
 11  4  1  0  0  0  0
 12  4  1  0  0  0  0
 13  5  1  0  0  0  0
 14  1  1  0  0  0  0
 14 23  1  0  0  0  0
 15 16  1  0  0  0  0
 15 14  1  0  0  0  0
 17 15  1  0  0  0  0
 18 17  1  0  0  0  0
 19 17  1  0  0  0  0
 20 18  1  0  0  0  0
 21 19  1  0  0  0  0
 22 20  1  0  0  0  0
 22 21  1  0  0  0  0
 23 25  1  0  0  0  0
 24 23  1  0  0  0  0
 26 25  1  0  0  0  0
 26 28  1  0  0  0  0
 27 29  1  0  0  0  0
 27 25  1  0  0  0  0
 30 29  1  0  0  0  0
 30 28  1  0  0  0  0
M  END
>  <MODEL>
17

>  <REMARK>
 VINA RESULT:    -4.781      2.260      4.326
 INTER + INTRA:          -7.926
 INTER:                  -6.698
 INTRA:                  -1.228
 UNBOUND:                -1.188
 SMILES CC1(C)CN2[C@H](CSC(NC3CCCCC3)NC3CCCCC3)CS[C@@H]2N1
 SMILES IDX 8 1 7 2 6 3 2 4 27 5 4 6 26 7 5 8 25 9 24 10 1 11 3 12 9 14
 SMILES IDX 10 15 11 17 12 18 16 19 13 20 15 21 14 22 17 23 18 25 19 26
 SMILES IDX 23 27 20 28 22 29 21 30
 H PARENT 27 13 10 16 17 24

>  <TORSDO>
F 7

$$$$
D:\Codex\projectless-workspaces\2026-08-22\non\work\whynot17\analysis\dinp_crc_structural_pipeline\outputs\stage2_refine_and_rescue\cxcr4_refinement\it1t_s0.70_e32_seed3002.pdbqt
 OpenBabel09032623223D

 30 33  0  0  1  0  0  0  0  0999 V2000
   14.6080   -5.1390   76.0370 S   0  0  0  0  0  0  0  0  0  0  0  0
   14.7410   -4.8510   77.7740 C   0  0  0  0  0  2  0  0  0  0  0  0
   13.8830   -3.6580   78.1160 C   0  0  0  0  0  0  0  0  0  0  0  0
   14.7280   -0.4060   76.7150 C   0  0  0  0  0  0  0  0  0  0  0  0
   13.5550   -0.3020   77.5830 N   0  0  0  0  0  0  0  0  0  0  0  0
   15.2230   -1.8540   76.8540 C   0  0  0  0  0  2  0  0  0  0  0  0
   13.3050   -1.5130   78.0990 C   0  0  2  0  0  3  0  0  0  0  0  0
   14.1570   -2.4050   77.6720 N   0  0  0  0  0  0  0  0  0  0  0  0
   11.9850   -2.1480   78.9880 S   0  0  0  0  0  0  0  0  0  0  0  0
   12.7000   -3.7330   78.8910 C   0  0  0  0  0  3  0  0  0  0  0  0
   15.7960    0.5680   77.1910 C   0  0  0  0  0  1  0  0  0  0  0  0
   14.3210   -0.1380   75.2690 C   0  0  0  0  0  1  0  0  0  0  0  0
   13.7420    0.3680   78.3420 H   0  0  0  0  0  0  0  0  0  0  0  0
   15.3390   -6.6030   75.6910 C   0  0  0  0  0  3  0  0  0  0  0  0
   16.6720   -6.6290   75.7980 N   0  0  0  0  0  0  0  0  0  0  0  0
   16.9590   -7.3990   75.1780 H   0  0  0  0  0  0  0  0  0  0  0  0
   17.5120   -6.7890   76.9750 C   0  0  0  0  0  3  0  0  0  0  0  0
   18.9240   -7.2800   76.6910 C   0  0  0  0  0  2  0  0  0  0  0  0
   16.9230   -7.4920   78.1870 C   0  0  0  0  0  2  0  0  0  0  0  0
   19.8270   -6.9320   77.8740 C   0  0  0  0  0  2  0  0  0  0  0  0
   17.7950   -7.2060   79.4130 C   0  0  0  0  0  2  0  0  0  0  0  0
   19.2910   -7.4810   79.1980 C   0  0  0  0  0  2  0  0  0  0  0  0
   14.6140   -7.6640   75.3130 N   0  0  0  0  0  0  0  0  0  0  0  0
   15.1540   -8.4820   75.6330 H   0  0  0  0  0  0  0  0  0  0  0  0
   14.1860   -8.0030   73.9550 C   0  0  0  0  0  3  0  0  0  0  0  0
   12.6870   -8.1330   73.7010 C   0  0  0  0  0  2  0  0  0  0  0  0
   14.8360   -7.1320   72.8870 C   0  0  0  0  0  2  0  0  0  0  0  0
   12.4250   -8.7200   72.3150 C   0  0  0  0  0  2  0  0  0  0  0  0
   14.6090   -7.7210   71.4950 C   0  0  0  0  0  2  0  0  0  0  0  0
   13.1270   -7.9360   71.2040 C   0  0  0  0  0  2  0  0  0  0  0  0
  1  2  1  0  0  0  0
  2  3  1  0  0  0  0
  3 10  2  0  0  0  0
  4  6  1  0  0  0  0
  4 11  1  0  0  0  0
  4  5  1  0  0  0  0
  5  7  1  0  0  0  0
  5 13  1  0  0  0  0
  6  8  1  0  0  0  0
  7  9  1  6  0  0  0
  8  7  1  0  0  0  0
  8  3  1  0  0  0  0
 10  9  1  0  0  0  0
 12  4  1  0  0  0  0
 14 15  1  0  0  0  0
 14  1  1  0  0  0  0
 15 17  1  0  0  0  0
 16 15  1  0  0  0  0
 17 19  1  0  0  0  0
 18 17  1  0  0  0  0
 18 20  1  0  0  0  0
 19 21  1  0  0  0  0
 20 22  1  0  0  0  0
 22 21  1  0  0  0  0
 23 24  1  0  0  0  0
 23 14  1  0  0  0  0
 25 23  1  0  0  0  0
 26 25  1  0  0  0  0
 27 25  1  0  0  0  0
 28 26  1  0  0  0  0
 29 27  1  0  0  0  0
 30 29  1  0  0  0  0
 30 28  1  0  0  0  0
M  END
>  <MODEL>
18

>  <REMARK>
 VINA RESULT:    -4.769      1.948      6.778
 INTER + INTRA:          -7.909
 INTER:                  -7.484
 INTRA:                  -0.425
 UNBOUND:                -1.188
 SMILES CC1(C)CN2[C@H](CSC(NC3CCCCC3)NC3CCCCC3)CS[C@@H]2N1
 SMILES IDX 8 1 7 2 6 3 2 4 27 5 4 6 26 7 5 8 25 9 24 10 1 11 3 12 9 14
 SMILES IDX 10 15 11 17 12 18 16 19 13 20 15 21 14 22 17 23 18 25 19 26
 SMILES IDX 23 27 20 28 22 29 21 30
 H PARENT 27 13 10 16 17 24

>  <TORSDO>
F 7

$$$$
D:\Codex\projectless-workspaces\2026-08-22\non\work\whynot17\analysis\dinp_crc_structural_pipeline\outputs\stage2_refine_and_rescue\cxcr4_refinement\it1t_s0.70_e32_seed3002.pdbqt
 OpenBabel09032623223D

 30 33  0  0  1  0  0  0  0  0999 V2000
   15.2050   -5.4840   74.4110 S   0  0  0  0  0  0  0  0  0  0  0  0
   15.2610   -7.0810   75.1630 C   0  0  0  0  0  2  0  0  0  0  0  0
   15.5640   -6.8950   76.6300 C   0  0  0  0  0  0  0  0  0  0  0  0
   12.8250   -6.2510   78.9390 C   0  0  0  0  0  0  0  0  0  0  0  0
   14.1030   -6.2570   79.6490 N   0  0  0  0  0  0  0  0  0  0  0  0
   13.1730   -6.3880   77.4480 C   0  0  0  0  0  2  0  0  0  0  0  0
   15.0790   -6.4640   78.7540 C   0  0  2  0  0  3  0  0  0  0  0  0
   14.6050   -6.6060   77.5470 N   0  0  0  0  0  0  0  0  0  0  0  0
   16.7500   -6.8070   78.9160 S   0  0  0  0  0  0  0  0  0  0  0  0
   16.8550   -7.0390   77.1920 C   0  0  0  0  0  3  0  0  0  0  0  0
   12.1100   -4.9320   79.1980 C   0  0  0  0  0  1  0  0  0  0  0  0
   11.9850   -7.4460   79.3840 C   0  0  0  0  0  1  0  0  0  0  0  0
   14.2460   -5.3510   80.1170 H   0  0  0  0  0  0  0  0  0  0  0  0
   13.6190   -5.1570   73.9930 C   0  0  0  0  0  3  0  0  0  0  0  0
   13.3100   -3.8650   73.8430 N   0  0  0  0  0  0  0  0  0  0  0  0
   13.8510   -3.5720   73.0180 H   0  0  0  0  0  0  0  0  0  0  0  0
   13.4510   -2.7560   74.7740 C   0  0  0  0  0  3  0  0  0  0  0  0
   14.5230   -1.7410   74.4020 C   0  0  0  0  0  2  0  0  0  0  0  0
   13.4880   -3.0680   76.2610 C   0  0  0  0  0  2  0  0  0  0  0  0
   14.2440   -0.4260   75.1260 C   0  0  0  0  0  2  0  0  0  0  0  0
   13.2390   -1.7830   77.0550 C   0  0  0  0  0  2  0  0  0  0  0  0
   14.1350   -0.6050   76.6420 C   0  0  0  0  0  2  0  0  0  0  0  0
   12.7270   -6.1460   73.8420 N   0  0  0  0  0  0  0  0  0  0  0  0
   13.0270   -6.8770   74.5040 H   0  0  0  0  0  0  0  0  0  0  0  0
   12.4060   -6.8650   72.6080 C   0  0  0  0  0  3  0  0  0  0  0  0
   12.5860   -6.1170   71.2900 C   0  0  0  0  0  2  0  0  0  0  0  0
   13.0510   -8.2440   72.5330 C   0  0  0  0  0  2  0  0  0  0  0  0
   11.9850   -6.9140   70.1330 C   0  0  0  0  0  2  0  0  0  0  0  0
   12.4400   -9.0660   71.3980 C   0  0  0  0  0  2  0  0  0  0  0  0
   12.5310   -8.3410   70.0590 C   0  0  0  0  0  2  0  0  0  0  0  0
  1  2  1  0  0  0  0
  2  3  1  0  0  0  0
  3 10  2  0  0  0  0
  3  8  1  0  0  0  0
  4 11  1  0  0  0  0
  4 12  1  0  0  0  0
  4  5  1  0  0  0  0
  5 13  1  0  0  0  0
  6  8  1  0  0  0  0
  6  4  1  0  0  0  0
  7  9  1  1  0  0  0
  7  5  1  0  0  0  0
  8  7  1  0  0  0  0
 10  9  1  0  0  0  0
 14  1  1  0  0  0  0
 15 14  1  0  0  0  0
 15 17  1  0  0  0  0
 16 15  1  0  0  0  0
 17 19  1  0  0  0  0
 18 17  1  0  0  0  0
 18 20  1  0  0  0  0
 19 21  1  0  0  0  0
 20 22  1  0  0  0  0
 22 21  1  0  0  0  0
 23 14  1  0  0  0  0
 23 24  1  0  0  0  0
 25 23  1  0  0  0  0
 26 25  1  0  0  0  0
 27 25  1  0  0  0  0
 28 26  1  0  0  0  0
 29 27  1  0  0  0  0
 30 28  1  0  0  0  0
 30 29  1  0  0  0  0
M  END
>  <MODEL>
19

>  <REMARK>
 VINA RESULT:    -4.740      2.050      6.179
 INTER + INTRA:          -7.867
 INTER:                  -6.824
 INTRA:                  -1.043
 UNBOUND:                -1.188
 SMILES CC1(C)CN2[C@H](CSC(NC3CCCCC3)NC3CCCCC3)CS[C@@H]2N1
 SMILES IDX 8 1 7 2 6 3 2 4 27 5 4 6 26 7 5 8 25 9 24 10 1 11 3 12 9 14
 SMILES IDX 10 15 11 17 12 18 16 19 13 20 15 21 14 22 17 23 18 25 19 26
 SMILES IDX 23 27 20 28 22 29 21 30
 H PARENT 27 13 10 16 17 24

>  <TORSDO>
F 7

$$$$
