D:\Codex\projectless-workspaces\2026-08-22\non\work\whynot17\analysis\dinp_crc_structural_pipeline\outputs\stage2_refine_and_rescue\cxcr4_refinement\it1t_s0.70_e32_seed3001.pdbqt
 OpenBabel09032623223D

 30 33  0  0  1  0  0  0  0  0999 V2000
   14.3140   -5.3650   76.7490 S   0  0  0  0  0  0  0  0  0  0  0  0
   13.0310   -4.6140   75.7960 C   0  0  0  0  0  2  0  0  0  0  0  0
   13.6100   -3.4010   75.1090 C   0  0  0  0  0  0  0  0  0  0  0  0
   14.2970   -0.4130   77.0710 C   0  0  0  0  0  0  0  0  0  0  0  0
   14.6330   -0.1920   75.6650 N   0  0  0  0  0  0  0  0  0  0  0  0
   13.6490   -1.8050   77.1330 C   0  0  0  0  0  2  0  0  0  0  0  0
   14.3320   -1.3040   74.9820 C   0  0  2  0  0  3  0  0  0  0  0  0
   13.8520   -2.2350   75.7600 N   0  0  0  0  0  0  0  0  0  0  0  0
   14.6690   -1.8110   73.3800 S   0  0  0  0  0  0  0  0  0  0  0  0
   13.9890   -3.3730   73.7460 C   0  0  0  0  0  3  0  0  0  0  0  0
   13.3110    0.6530   77.5290 C   0  0  0  0  0  1  0  0  0  0  0  0
   15.5720   -0.4020   77.9110 C   0  0  0  0  0  1  0  0  0  0  0  0
   14.0880    0.6010   75.2980 H   0  0  0  0  0  0  0  0  0  0  0  0
   15.1460   -6.4280   75.7630 C   0  0  0  0  0  3  0  0  0  0  0  0
   14.3940   -7.2510   75.0250 N   0  0  0  0  0  0  0  0  0  0  0  0
   14.7730   -8.1860   75.2260 H   0  0  0  0  0  0  0  0  0  0  0  0
   14.1560   -7.2650   73.5890 C   0  0  0  0  0  3  0  0  0  0  0  0
   12.7400   -6.8980   73.1720 C   0  0  0  0  0  2  0  0  0  0  0  0
   14.6710   -8.4510   72.7890 C   0  0  0  0  0  2  0  0  0  0  0  0
   12.7430   -6.4620   71.7070 C   0  0  0  0  0  2  0  0  0  0  0  0
   14.6790   -8.0930   71.3010 C   0  0  0  0  0  2  0  0  0  0  0  0
   13.3500   -7.5210   70.7850 C   0  0  0  0  0  2  0  0  0  0  0  0
   16.4860   -6.4470   75.7450 N   0  0  0  0  0  0  0  0  0  0  0  0
   16.7320   -7.2040   75.0900 H   0  0  0  0  0  0  0  0  0  0  0  0
   17.3820   -6.6320   76.8870 C   0  0  0  0  0  3  0  0  0  0  0  0
   16.8070   -7.3050   78.1310 C   0  0  0  0  0  2  0  0  0  0  0  0
   18.7170   -7.2620   76.5070 C   0  0  0  0  0  2  0  0  0  0  0  0
   17.7870   -7.2030   79.2990 C   0  0  0  0  0  2  0  0  0  0  0  0
   19.7190   -7.1430   77.6540 C   0  0  0  0  0  2  0  0  0  0  0  0
   19.1760   -7.7420   78.9470 C   0  0  0  0  0  2  0  0  0  0  0  0
  2  1  1  0  0  0  0
  3  8  1  0  0  0  0
  3  2  1  0  0  0  0
  4  6  1  0  0  0  0
  4 11  1  0  0  0  0
  4 12  1  0  0  0  0
  5  4  1  0  0  0  0
  7  9  1  1  0  0  0
  7  5  1  0  0  0  0
  7  8  1  0  0  0  0
  8  6  1  0  0  0  0
  9 10  1  0  0  0  0
 10  3  2  0  0  0  0
 13  5  1  0  0  0  0
 14  1  1  0  0  0  0
 15 16  1  0  0  0  0
 15 14  1  0  0  0  0
 17 15  1  0  0  0  0
 18 17  1  0  0  0  0
 19 17  1  0  0  0  0
 20 18  1  0  0  0  0
 21 19  1  0  0  0  0
 22 21  1  0  0  0  0
 22 20  1  0  0  0  0
 23 14  1  0  0  0  0
 23 25  1  0  0  0  0
 24 23  1  0  0  0  0
 25 26  1  0  0  0  0
 26 28  1  0  0  0  0
 27 25  1  0  0  0  0
 27 29  1  0  0  0  0
 29 30  1  0  0  0  0
 30 28  1  0  0  0  0
M  END
>  <MODEL>
1

>  <REMARK>
 VINA RESULT:    -5.766      0.000      0.000
 INTER + INTRA:          -8.877
 INTER:                  -8.125
 INTRA:                  -0.751
 UNBOUND:                -0.751
 SMILES CC1(C)CN2[C@H](CSC(NC3CCCCC3)NC3CCCCC3)CS[C@@H]2N1
 SMILES IDX 8 1 7 2 6 3 2 4 27 5 4 6 26 7 5 8 25 9 24 10 1 11 3 12 9 14
 SMILES IDX 10 15 11 17 12 18 16 19 13 20 15 21 14 22 17 23 18 25 19 26
 SMILES IDX 23 27 20 28 22 29 21 30
 H PARENT 27 13 10 16 17 24

>  <TORSDO>
F 7

$$$$
D:\Codex\projectless-workspaces\2026-08-22\non\work\whynot17\analysis\dinp_crc_structural_pipeline\outputs\stage2_refine_and_rescue\cxcr4_refinement\it1t_s0.70_e32_seed3001.pdbqt
 OpenBabel09032623223D

 30 33  0  0  1  0  0  0  0  0999 V2000
   14.7620   -5.9830   74.5260 S   0  0  0  0  0  0  0  0  0  0  0  0
   13.2870   -5.0410   74.7590 C   0  0  0  0  0  2  0  0  0  0  0  0
   13.6440   -3.5790   74.6370 C   0  0  0  0  0  0  0  0  0  0  0  0
   14.6360   -1.7430   77.6190 C   0  0  0  0  0  0  0  0  0  0  0  0
   14.6330   -0.8620   76.4520 N   0  0  0  0  0  0  0  0  0  0  0  0
   14.0770   -3.0880   77.1300 C   0  0  0  0  0  2  0  0  0  0  0  0
   14.2310   -1.5730   75.3900 C   0  0  2  0  0  3  0  0  0  0  0  0
   13.9790   -2.8140   75.7070 N   0  0  0  0  0  0  0  0  0  0  0  0
   14.2150   -1.2440   73.7090 S   0  0  0  0  0  0  0  0  0  0  0  0
   13.7010   -2.8810   73.4070 C   0  0  0  0  0  3  0  0  0  0  0  0
   13.7370   -1.1540   78.6980 C   0  0  0  0  0  1  0  0  0  0  0  0
   16.0670   -1.9310   78.1160 C   0  0  0  0  0  1  0  0  0  0  0  0
   13.9870   -0.0760   76.6100 H   0  0  0  0  0  0  0  0  0  0  0  0
   14.4270   -7.5790   74.8940 C   0  0  0  0  0  3  0  0  0  0  0  0
   13.6040   -8.2120   74.0520 N   0  0  0  0  0  0  0  0  0  0  0  0
   13.7960   -9.2100   74.2150 H   0  0  0  0  0  0  0  0  0  0  0  0
   13.4840   -8.1050   72.6050 C   0  0  0  0  0  3  0  0  0  0  0  0
   12.3100   -8.8630   72.0030 C   0  0  0  0  0  2  0  0  0  0  0  0
   14.7380   -8.2850   71.7660 C   0  0  0  0  0  2  0  0  0  0  0  0
   11.9920   -8.2890   70.6240 C   0  0  0  0  0  2  0  0  0  0  0  0
   14.4840   -7.7510   70.3540 C   0  0  0  0  0  2  0  0  0  0  0  0
   13.2080   -8.2960   69.6950 C   0  0  0  0  0  2  0  0  0  0  0  0
   14.9490   -8.1610   75.9830 N   0  0  0  0  0  0  0  0  0  0  0  0
   14.4320   -9.0460   76.0850 H   0  0  0  0  0  0  0  0  0  0  0  0
   15.0130   -7.6050   77.3360 C   0  0  0  0  0  3  0  0  0  0  0  0
   16.2030   -6.7090   77.6730 C   0  0  0  0  0  2  0  0  0  0  0  0
   13.7090   -6.9510   77.7770 C   0  0  0  0  0  2  0  0  0  0  0  0
   16.2450   -6.4150   79.1720 C   0  0  0  0  0  2  0  0  0  0  0  0
   13.7230   -6.6760   79.2810 C   0  0  0  0  0  2  0  0  0  0  0  0
   14.9280   -5.8360   79.6930 C   0  0  0  0  0  2  0  0  0  0  0  0
  1  2  1  0  0  0  0
  1 14  1  0  0  0  0
  3  2  1  0  0  0  0
  3  8  1  0  0  0  0
  4 12  1  0  0  0  0
  4 11  1  0  0  0  0
  5 13  1  0  0  0  0
  5  4  1  0  0  0  0
  6  4  1  0  0  0  0
  7  9  1  6  0  0  0
  7  8  1  0  0  0  0
  7  5  1  0  0  0  0
  8  6  1  0  0  0  0
 10  9  1  0  0  0  0
 10  3  2  0  0  0  0
 14 23  1  0  0  0  0
 15 16  1  0  0  0  0
 15 14  1  0  0  0  0
 17 15  1  0  0  0  0
 18 17  1  0  0  0  0
 19 17  1  0  0  0  0
 20 18  1  0  0  0  0
 21 19  1  0  0  0  0
 22 21  1  0  0  0  0
 22 20  1  0  0  0  0
 23 24  1  0  0  0  0
 23 25  1  0  0  0  0
 25 26  1  0  0  0  0
 25 27  1  0  0  0  0
 26 28  1  0  0  0  0
 27 29  1  0  0  0  0
 28 30  1  0  0  0  0
 29 30  1  0  0  0  0
M  END
>  <MODEL>
2

>  <REMARK>
 VINA RESULT:    -5.737      1.708      2.332
 INTER + INTRA:          -8.836
 INTER:                  -8.023
 INTRA:                  -0.812
 UNBOUND:                -0.751
 SMILES CC1(C)CN2[C@H](CSC(NC3CCCCC3)NC3CCCCC3)CS[C@@H]2N1
 SMILES IDX 8 1 7 2 6 3 2 4 27 5 4 6 26 7 5 8 25 9 24 10 1 11 3 12 9 14
 SMILES IDX 10 15 11 17 12 18 16 19 13 20 15 21 14 22 17 23 18 25 19 26
 SMILES IDX 23 27 20 28 22 29 21 30
 H PARENT 27 13 10 16 17 24

>  <TORSDO>
F 7

$$$$
D:\Codex\projectless-workspaces\2026-08-22\non\work\whynot17\analysis\dinp_crc_structural_pipeline\outputs\stage2_refine_and_rescue\cxcr4_refinement\it1t_s0.70_e32_seed3001.pdbqt
 OpenBabel09032623223D

 30 33  0  0  1  0  0  0  0  0999 V2000
   14.1230   -5.8590   74.5440 S   0  0  0  0  0  0  0  0  0  0  0  0
   12.9630   -4.6640   75.1320 C   0  0  0  0  0  2  0  0  0  0  0  0
   13.4440   -3.2980   74.7040 C   0  0  0  0  0  0  0  0  0  0  0  0
   14.6350   -0.9670   77.2330 C   0  0  0  0  0  0  0  0  0  0  0  0
   14.6910   -0.3560   75.9060 N   0  0  0  0  0  0  0  0  0  0  0  0
   13.9540   -2.3310   77.0380 C   0  0  0  0  0  2  0  0  0  0  0  0
   14.2130   -1.2380   75.0170 C   0  0  2  0  0  3  0  0  0  0  0  0
   13.8600   -2.3570   75.5890 N   0  0  0  0  0  0  0  0  0  0  0  0
   14.2010   -1.2720   73.3040 S   0  0  0  0  0  0  0  0  0  0  0  0
   13.5430   -2.8840   73.3540 C   0  0  0  0  0  3  0  0  0  0  0  0
   13.8060   -0.0870   78.1580 C   0  0  0  0  0  1  0  0  0  0  0  0
   16.0510   -1.1710   77.7650 C   0  0  0  0  0  1  0  0  0  0  0  0
   14.1180    0.4990   75.8910 H   0  0  0  0  0  0  0  0  0  0  0  0
   13.5430   -7.3810   74.9200 C   0  0  0  0  0  3  0  0  0  0  0  0
   13.4670   -7.6700   76.2240 N   0  0  0  0  0  0  0  0  0  0  0  0
   12.5850   -7.2360   76.5260 H   0  0  0  0  0  0  0  0  0  0  0  0
   14.3980   -7.3740   77.3030 C   0  0  0  0  0  3  0  0  0  0  0  0
   13.9260   -6.3050   78.2790 C   0  0  0  0  0  2  0  0  0  0  0  0
   15.8650   -7.1830   76.9530 C   0  0  0  0  0  2  0  0  0  0  0  0
   14.7030   -6.4400   79.5870 C   0  0  0  0  0  2  0  0  0  0  0  0
   16.7070   -7.2810   78.2280 C   0  0  0  0  0  2  0  0  0  0  0  0
   16.2170   -6.3850   79.3750 C   0  0  0  0  0  2  0  0  0  0  0  0
   13.2010   -8.2470   73.9570 N   0  0  0  0  0  0  0  0  0  0  0  0
   13.8170   -9.0600   74.0990 H   0  0  0  0  0  0  0  0  0  0  0  0
   13.2160   -8.0120   72.5120 C   0  0  0  0  0  3  0  0  0  0  0  0
   14.5550   -8.1490   71.7910 C   0  0  0  0  0  2  0  0  0  0  0  0
   12.1280   -8.7780   71.7680 C   0  0  0  0  0  2  0  0  0  0  0  0
   14.4460   -7.6410   70.3540 C   0  0  0  0  0  2  0  0  0  0  0  0
   11.9850   -8.2620   70.3370 C   0  0  0  0  0  2  0  0  0  0  0  0
   13.3090   -8.3130   69.5800 C   0  0  0  0  0  2  0  0  0  0  0  0
  1 14  1  0  0  0  0
  1  2  1  0  0  0  0
  3  2  1  0  0  0  0
  3  8  1  0  0  0  0
  4 12  1  0  0  0  0
  4 11  1  0  0  0  0
  5  4  1  0  0  0  0
  6  4  1  0  0  0  0
  7  9  1  6  0  0  0
  7  8  1  0  0  0  0
  7  5  1  0  0  0  0
  8  6  1  0  0  0  0
  9 10  1  0  0  0  0
 10  3  2  0  0  0  0
 13  5  1  0  0  0  0
 14 15  1  0  0  0  0
 15 16  1  0  0  0  0
 15 17  1  0  0  0  0
 17 18  1  0  0  0  0
 18 20  1  0  0  0  0
 19 17  1  0  0  0  0
 19 21  1  0  0  0  0
 21 22  1  0  0  0  0
 22 20  1  0  0  0  0
 23 24  1  0  0  0  0
 23 14  1  0  0  0  0
 25 23  1  0  0  0  0
 26 25  1  0  0  0  0
 27 25  1  0  0  0  0
 28 26  1  0  0  0  0
 29 27  1  0  0  0  0
 30 29  1  0  0  0  0
 30 28  1  0  0  0  0
M  END
>  <MODEL>
3

>  <REMARK>
 VINA RESULT:    -5.727      1.540      5.371
 INTER + INTRA:          -8.822
 INTER:                  -8.355
 INTRA:                  -0.467
 UNBOUND:                -0.751
 SMILES CC1(C)CN2[C@H](CSC(NC3CCCCC3)NC3CCCCC3)CS[C@@H]2N1
 SMILES IDX 8 1 7 2 6 3 2 4 27 5 4 6 26 7 5 8 25 9 24 10 1 11 3 12 9 14
 SMILES IDX 10 15 11 17 12 18 16 19 13 20 15 21 14 22 17 23 18 25 19 26
 SMILES IDX 23 27 20 28 22 29 21 30
 H PARENT 27 13 10 16 17 24

>  <TORSDO>
F 7

$$$$
D:\Codex\projectless-workspaces\2026-08-22\non\work\whynot17\analysis\dinp_crc_structural_pipeline\outputs\stage2_refine_and_rescue\cxcr4_refinement\it1t_s0.70_e32_seed3001.pdbqt
 OpenBabel09032623223D

 30 33  0  0  1  0  0  0  0  0999 V2000
   13.0860   -5.4060   77.8410 S   0  0  0  0  0  0  0  0  0  0  0  0
   12.9990   -6.6620   76.6030 C   0  0  0  0  0  2  0  0  0  0  0  0
   12.8840   -5.9850   75.2590 C   0  0  0  0  0  0  0  0  0  0  0  0
   13.6290   -7.8870   72.2460 C   0  0  0  0  0  0  0  0  0  0  0  0
   13.2740   -6.5090   71.9080 N   0  0  0  0  0  0  0  0  0  0  0  0
   13.6760   -7.9420   73.7810 C   0  0  0  0  0  2  0  0  0  0  0  0
   13.0430   -5.8430   73.0480 C   0  0  2  0  0  3  0  0  0  0  0  0
   13.1880   -6.6110   74.0940 N   0  0  0  0  0  0  0  0  0  0  0  0
   12.3790   -4.2980   73.3780 S   0  0  0  0  0  0  0  0  0  0  0  0
   12.4170   -4.6600   75.0810 C   0  0  0  0  0  3  0  0  0  0  0  0
   14.9960   -8.2140   71.6610 C   0  0  0  0  0  1  0  0  0  0  0  0
   12.5510   -8.8350   71.7300 C   0  0  0  0  0  1  0  0  0  0  0  0
   14.0500   -6.0650   71.3970 H   0  0  0  0  0  0  0  0  0  0  0  0
   14.6850   -5.2250   78.2930 C   0  0  0  0  0  3  0  0  0  0  0  0
   15.1850   -3.9900   78.1880 N   0  0  0  0  0  0  0  0  0  0  0  0
   15.1710   -3.6300   79.1530 H   0  0  0  0  0  0  0  0  0  0  0  0
   14.7350   -2.8640   77.3830 C   0  0  0  0  0  3  0  0  0  0  0  0
   15.5630   -2.5980   76.1350 C   0  0  0  0  0  2  0  0  0  0  0  0
   14.3880   -1.5670   78.0950 C   0  0  0  0  0  2  0  0  0  0  0  0
   14.7390   -1.7720   75.1500 C   0  0  0  0  0  2  0  0  0  0  0  0
   13.5770   -0.6730   77.1530 C   0  0  0  0  0  2  0  0  0  0  0  0
   14.2160   -0.4750   75.7700 C   0  0  0  0  0  2  0  0  0  0  0  0
   15.4060   -6.2740   78.7130 N   0  0  0  0  0  0  0  0  0  0  0  0
   15.2650   -6.3020   79.7330 H   0  0  0  0  0  0  0  0  0  0  0  0
   16.8420   -6.4900   78.5270 C   0  0  0  0  0  3  0  0  0  0  0  0
   17.6200   -7.0950   79.6930 C   0  0  0  0  0  2  0  0  0  0  0  0
   17.1760   -7.2150   77.2280 C   0  0  0  0  0  2  0  0  0  0  0  0
   19.1230   -7.0290   79.4280 C   0  0  0  0  0  2  0  0  0  0  0  0
   18.6730   -7.1340   76.9320 C   0  0  0  0  0  2  0  0  0  0  0  0
   19.5110   -7.6660   78.0910 C   0  0  0  0  0  2  0  0  0  0  0  0
  1 14  1  0  0  0  0
  2  1  1  0  0  0  0
  3  2  1  0  0  0  0
  4  6  1  0  0  0  0
  5  4  1  0  0  0  0
  5  7  1  0  0  0  0
  6  8  1  0  0  0  0
  7  9  1  6  0  0  0
  7  8  1  0  0  0  0
  8  3  1  0  0  0  0
  9 10  1  0  0  0  0
 10  3  2  0  0  0  0
 11  4  1  0  0  0  0
 12  4  1  0  0  0  0
 13  5  1  0  0  0  0
 14 23  1  0  0  0  0
 15 14  1  0  0  0  0
 15 16  1  0  0  0  0
 17 19  1  0  0  0  0
 17 15  1  0  0  0  0
 18 17  1  0  0  0  0
 20 22  1  0  0  0  0
 20 18  1  0  0  0  0
 21 19  1  0  0  0  0
 22 21  1  0  0  0  0
 23 24  1  0  0  0  0
 25 23  1  0  0  0  0
 25 26  1  0  0  0  0
 27 25  1  0  0  0  0
 28 26  1  0  0  0  0
 29 27  1  0  0  0  0
 29 30  1  0  0  0  0
 30 28  1  0  0  0  0
M  END
>  <MODEL>
4

>  <REMARK>
 VINA RESULT:    -5.659      1.839      5.775
 INTER + INTRA:          -8.726
 INTER:                  -7.621
 INTRA:                  -1.105
 UNBOUND:                -0.751
 SMILES CC1(C)CN2[C@H](CSC(NC3CCCCC3)NC3CCCCC3)CS[C@@H]2N1
 SMILES IDX 8 1 7 2 6 3 2 4 27 5 4 6 26 7 5 8 25 9 24 10 1 11 3 12 9 14
 SMILES IDX 10 15 11 17 12 18 16 19 13 20 15 21 14 22 17 23 18 25 19 26
 SMILES IDX 23 27 20 28 22 29 21 30
 H PARENT 27 13 10 16 17 24

>  <TORSDO>
F 7

$$$$
D:\Codex\projectless-workspaces\2026-08-22\non\work\whynot17\analysis\dinp_crc_structural_pipeline\outputs\stage2_refine_and_rescue\cxcr4_refinement\it1t_s0.70_e32_seed3001.pdbqt
 OpenBabel09032623223D

 30 33  0  0  1  0  0  0  0  0999 V2000
   14.9740   -5.2780   74.7990 S   0  0  0  0  0  0  0  0  0  0  0  0
   13.3460   -4.6060   74.9270 C   0  0  0  0  0  2  0  0  0  0  0  0
   13.2020   -3.9910   76.2980 C   0  0  0  0  0  0  0  0  0  0  0  0
   14.6570   -0.7160   76.9340 C   0  0  0  0  0  0  0  0  0  0  0  0
   14.0200   -1.2370   78.1430 N   0  0  0  0  0  0  0  0  0  0  0  0
   14.5710   -1.8450   75.8950 C   0  0  0  0  0  2  0  0  0  0  0  0
   13.5310   -2.4540   77.8680 C   0  0  2  0  0  3  0  0  0  0  0  0
   13.7540   -2.7960   76.6280 N   0  0  0  0  0  0  0  0  0  0  0  0
   12.4930   -3.5110   78.7280 S   0  0  0  0  0  0  0  0  0  0  0  0
   12.4540   -4.5740   77.3490 C   0  0  0  0  0  3  0  0  0  0  0  0
   16.1120   -0.3810   77.2350 C   0  0  0  0  0  1  0  0  0  0  0  0
   13.8880    0.5040   76.4340 C   0  0  0  0  0  1  0  0  0  0  0  0
   14.7140   -1.3040   78.9010 H   0  0  0  0  0  0  0  0  0  0  0  0
   14.9920   -6.7580   75.5750 C   0  0  0  0  0  3  0  0  0  0  0  0
   14.6310   -7.8100   74.8330 N   0  0  0  0  0  0  0  0  0  0  0  0
   15.4670   -8.4100   74.8230 H   0  0  0  0  0  0  0  0  0  0  0  0
   14.1400   -7.8650   73.4640 C   0  0  0  0  0  3  0  0  0  0  0  0
   12.8420   -8.6380   73.2800 C   0  0  0  0  0  2  0  0  0  0  0  0
   15.1310   -8.1910   72.3590 C   0  0  0  0  0  2  0  0  0  0  0  0
   12.1830   -8.2120   71.9690 C   0  0  0  0  0  2  0  0  0  0  0  0
   14.5240   -7.8110   71.0050 C   0  0  0  0  0  2  0  0  0  0  0  0
   13.1150   -8.3750   70.7670 C   0  0  0  0  0  2  0  0  0  0  0  0
   15.3320   -6.8560   76.8670 N   0  0  0  0  0  0  0  0  0  0  0  0
   15.1450   -5.9230   77.2620 H   0  0  0  0  0  0  0  0  0  0  0  0
   16.6360   -7.2390   77.4100 C   0  0  0  0  0  3  0  0  0  0  0  0
   17.8740   -6.8680   76.5970 C   0  0  0  0  0  2  0  0  0  0  0  0
   16.8180   -6.8420   78.8710 C   0  0  0  0  0  2  0  0  0  0  0  0
   19.1180   -7.5440   77.1740 C   0  0  0  0  0  2  0  0  0  0  0  0
   18.0410   -7.5320   79.4720 C   0  0  0  0  0  2  0  0  0  0  0  0
   19.3050   -7.2520   78.6640 C   0  0  0  0  0  2  0  0  0  0  0  0
  1  2  1  0  0  0  0
  1 14  1  0  0  0  0
  2  3  1  0  0  0  0
  3  8  1  0  0  0  0
  3 10  2  0  0  0  0
  4 11  1  0  0  0  0
  4  5  1  0  0  0  0
  5 13  1  0  0  0  0
  6  8  1  0  0  0  0
  6  4  1  0  0  0  0
  7  5  1  0  0  0  0
  7  9  1  6  0  0  0
  8  7  1  0  0  0  0
 10  9  1  0  0  0  0
 12  4  1  0  0  0  0
 14 23  1  0  0  0  0
 15 14  1  0  0  0  0
 16 15  1  0  0  0  0
 17 15  1  0  0  0  0
 18 17  1  0  0  0  0
 19 17  1  0  0  0  0
 20 18  1  0  0  0  0
 21 19  1  0  0  0  0
 22 21  1  0  0  0  0
 22 20  1  0  0  0  0
 23 24  1  0  0  0  0
 23 25  1  0  0  0  0
 25 27  1  0  0  0  0
 26 28  1  0  0  0  0
 26 25  1  0  0  0  0
 27 29  1  0  0  0  0
 28 30  1  0  0  0  0
 30 29  1  0  0  0  0
M  END
>  <MODEL>
5

>  <REMARK>
 VINA RESULT:    -5.653      1.385      2.239
 INTER + INTRA:          -8.718
 INTER:                  -7.830
 INTRA:                  -0.887
 UNBOUND:                -0.751
 SMILES CC1(C)CN2[C@H](CSC(NC3CCCCC3)NC3CCCCC3)CS[C@@H]2N1
 SMILES IDX 8 1 7 2 6 3 2 4 27 5 4 6 26 7 5 8 25 9 24 10 1 11 3 12 9 14
 SMILES IDX 10 15 11 17 12 18 16 19 13 20 15 21 14 22 17 23 18 25 19 26
 SMILES IDX 23 27 20 28 22 29 21 30
 H PARENT 27 13 10 16 17 24

>  <TORSDO>
F 7

$$$$
D:\Codex\projectless-workspaces\2026-08-22\non\work\whynot17\analysis\dinp_crc_structural_pipeline\outputs\stage2_refine_and_rescue\cxcr4_refinement\it1t_s0.70_e32_seed3001.pdbqt
 OpenBabel09032623223D

 30 33  0  0  1  0  0  0  0  0999 V2000
   13.2840   -3.6820   73.5190 S   0  0  0  0  0  0  0  0  0  0  0  0
   12.1980   -5.0740   73.5260 C   0  0  0  0  0  2  0  0  0  0  0  0
   12.3650   -5.8030   72.2150 C   0  0  0  0  0  0  0  0  0  0  0  0
   13.6070   -9.2240   72.2330 C   0  0  0  0  0  0  0  0  0  0  0  0
   13.3700   -8.7720   70.8630 N   0  0  0  0  0  0  0  0  0  0  0  0
   13.3580   -7.9990   73.1270 C   0  0  0  0  0  2  0  0  0  0  0  0
   12.9480   -7.5010   70.9070 C   0  0  2  0  0  3  0  0  0  0  0  0
   12.8650   -7.0620   72.1330 N   0  0  0  0  0  0  0  0  0  0  0  0
   12.2860   -6.4540   69.7230 S   0  0  0  0  0  0  0  0  0  0  0  0
   11.9850   -5.2660   70.9610 C   0  0  0  0  0  3  0  0  0  0  0  0
   15.0490   -9.6940   72.3670 C   0  0  0  0  0  1  0  0  0  0  0  0
   12.6160  -10.3290   72.5880 C   0  0  0  0  0  1  0  0  0  0  0  0
   14.2440   -8.8300   70.3210 H   0  0  0  0  0  0  0  0  0  0  0  0
   13.4730   -3.1570   75.0950 C   0  0  0  0  0  3  0  0  0  0  0  0
   14.0430   -1.9570   75.2460 N   0  0  0  0  0  0  0  0  0  0  0  0
   14.8560   -1.9840   74.6150 H   0  0  0  0  0  0  0  0  0  0  0  0
   14.5450   -1.3040   76.4460 C   0  0  0  0  0  3  0  0  0  0  0  0
   14.2820    0.1930   76.5180 C   0  0  0  0  0  2  0  0  0  0  0  0
   15.9580   -1.6330   76.9020 C   0  0  0  0  0  2  0  0  0  0  0  0
   14.3830    0.6530   77.9710 C   0  0  0  0  0  2  0  0  0  0  0  0
   16.1410   -1.1750   78.3520 C   0  0  0  0  0  2  0  0  0  0  0  0
   15.7240    0.2820   78.6080 C   0  0  0  0  0  2  0  0  0  0  0  0
   13.0870   -3.9190   76.1270 N   0  0  0  0  0  0  0  0  0  0  0  0
   12.8680   -3.2530   76.8820 H   0  0  0  0  0  0  0  0  0  0  0  0
   13.8560   -4.9820   76.7760 C   0  0  0  0  0  3  0  0  0  0  0  0
   15.1670   -5.4050   76.1180 C   0  0  0  0  0  2  0  0  0  0  0  0
   14.0590   -4.7500   78.2690 C   0  0  0  0  0  2  0  0  0  0  0  0
   15.7140   -6.6710   76.7760 C   0  0  0  0  0  2  0  0  0  0  0  0
   14.5790   -6.0160   78.9490 C   0  0  0  0  0  2  0  0  0  0  0  0
   15.8570   -6.5280   78.2930 C   0  0  0  0  0  2  0  0  0  0  0  0
  1  2  1  0  0  0  0
  1 14  1  0  0  0  0
  3  2  1  0  0  0  0
  4 11  1  0  0  0  0
  4 12  1  0  0  0  0
  4  6  1  0  0  0  0
  5  7  1  0  0  0  0
  5  4  1  0  0  0  0
  7  9  1  1  0  0  0
  7  8  1  0  0  0  0
  8  3  1  0  0  0  0
  8  6  1  0  0  0  0
  9 10  1  0  0  0  0
 10  3  2  0  0  0  0
 13  5  1  0  0  0  0
 14 15  1  0  0  0  0
 14 23  1  0  0  0  0
 15 17  1  0  0  0  0
 16 15  1  0  0  0  0
 17 18  1  0  0  0  0
 17 19  1  0  0  0  0
 18 20  1  0  0  0  0
 19 21  1  0  0  0  0
 20 22  1  0  0  0  0
 21 22  1  0  0  0  0
 23 25  1  0  0  0  0
 23 24  1  0  0  0  0
 25 27  1  0  0  0  0
 26 25  1  0  0  0  0
 26 28  1  0  0  0  0
 27 29  1  0  0  0  0
 28 30  1  0  0  0  0
 30 29  1  0  0  0  0
M  END
>  <MODEL>
6

>  <REMARK>
 VINA RESULT:    -5.637      2.197      7.138
 INTER + INTRA:          -8.695
 INTER:                  -7.567
 INTRA:                  -1.128
 UNBOUND:                -0.751
 SMILES CC1(C)CN2[C@H](CSC(NC3CCCCC3)NC3CCCCC3)CS[C@@H]2N1
 SMILES IDX 8 1 7 2 6 3 2 4 27 5 4 6 26 7 5 8 25 9 24 10 1 11 3 12 9 14
 SMILES IDX 10 15 11 17 12 18 16 19 13 20 15 21 14 22 17 23 18 25 19 26
 SMILES IDX 23 27 20 28 22 29 21 30
 H PARENT 27 13 10 16 17 24

>  <TORSDO>
F 7

$$$$
D:\Codex\projectless-workspaces\2026-08-22\non\work\whynot17\analysis\dinp_crc_structural_pipeline\outputs\stage2_refine_and_rescue\cxcr4_refinement\it1t_s0.70_e32_seed3001.pdbqt
 OpenBabel09032623223D

 30 33  0  0  1  0  0  0  0  0999 V2000
   13.5670   -4.2880   73.7050 S   0  0  0  0  0  0  0  0  0  0  0  0
   12.0220   -4.8310   73.0460 C   0  0  0  0  0  2  0  0  0  0  0  0
   12.3040   -5.6440   71.8060 C   0  0  0  0  0  0  0  0  0  0  0  0
   13.4290   -9.0870   72.1620 C   0  0  0  0  0  0  0  0  0  0  0  0
   13.3540   -8.7160   70.7490 N   0  0  0  0  0  0  0  0  0  0  0  0
   13.1260   -7.8030   72.9490 C   0  0  0  0  0  2  0  0  0  0  0  0
   12.9690   -7.4350   70.6720 C   0  0  2  0  0  3  0  0  0  0  0  0
   12.7700   -6.9180   71.8540 N   0  0  0  0  0  0  0  0  0  0  0  0
   12.4700   -6.4480   69.3630 S   0  0  0  0  0  0  0  0  0  0  0  0
   12.0770   -5.1770   70.4880 C   0  0  0  0  0  3  0  0  0  0  0  0
   14.8330   -9.5840   72.4780 C   0  0  0  0  0  1  0  0  0  0  0  0
   12.3720  -10.1430   72.4720 C   0  0  0  0  0  1  0  0  0  0  0  0
   14.2780   -8.8290   70.3090 H   0  0  0  0  0  0  0  0  0  0  0  0
   13.4250   -4.2010   75.3690 C   0  0  0  0  0  3  0  0  0  0  0  0
   13.6090   -5.3480   76.0310 N   0  0  0  0  0  0  0  0  0  0  0  0
   12.7370   -5.4720   76.5640 H   0  0  0  0  0  0  0  0  0  0  0  0
   14.6560   -5.7290   76.9670 C   0  0  0  0  0  3  0  0  0  0  0  0
   15.2700   -7.0990   76.7160 C   0  0  0  0  0  2  0  0  0  0  0  0
   14.4080   -5.5050   78.4500 C   0  0  0  0  0  2  0  0  0  0  0  0
   16.6350   -7.1720   77.3970 C   0  0  0  0  0  2  0  0  0  0  0  0
   15.7390   -5.5890   79.2040 C   0  0  0  0  0  2  0  0  0  0  0  0
   16.5600   -6.8490   78.8910 C   0  0  0  0  0  2  0  0  0  0  0  0
   13.1250   -3.0440   75.9760 N   0  0  0  0  0  0  0  0  0  0  0  0
   12.3280   -2.6650   75.4460 H   0  0  0  0  0  0  0  0  0  0  0  0
   14.0150   -1.9010   76.1870 C   0  0  0  0  0  3  0  0  0  0  0  0
   13.4620   -0.7150   76.9730 C   0  0  0  0  0  2  0  0  0  0  0  0
   15.3880   -2.2990   76.7160 C   0  0  0  0  0  2  0  0  0  0  0  0
   14.4190    0.4740   76.8950 C   0  0  0  0  0  2  0  0  0  0  0  0
   16.3660   -1.1290   76.6170 C   0  0  0  0  0  2  0  0  0  0  0  0
   15.8400    0.1120   77.3310 C   0  0  0  0  0  2  0  0  0  0  0  0
  1 14  1  0  0  0  0
  2  1  1  0  0  0  0
  3  8  1  0  0  0  0
  3  2  1  0  0  0  0
  4 12  1  0  0  0  0
  4 11  1  0  0  0  0
  4  6  1  0  0  0  0
  5  4  1  0  0  0  0
  7  9  1  6  0  0  0
  7  5  1  0  0  0  0
  7  8  1  0  0  0  0
  8  6  1  0  0  0  0
  9 10  1  0  0  0  0
 10  3  2  0  0  0  0
 13  5  1  0  0  0  0
 14 23  1  0  0  0  0
 14 15  1  0  0  0  0
 15 16  1  0  0  0  0
 15 17  1  0  0  0  0
 17 19  1  0  0  0  0
 18 17  1  0  0  0  0
 18 20  1  0  0  0  0
 19 21  1  0  0  0  0
 20 22  1  0  0  0  0
 22 21  1  0  0  0  0
 23 25  1  0  0  0  0
 24 23  1  0  0  0  0
 25 27  1  0  0  0  0
 25 26  1  0  0  0  0
 28 26  1  0  0  0  0
 28 30  1  0  0  0  0
 29 27  1  0  0  0  0
 29 30  1  0  0  0  0
M  END
>  <MODEL>
7

>  <REMARK>
 VINA RESULT:    -5.629      2.294      7.054
 INTER + INTRA:          -8.684
 INTER:                  -7.751
 INTRA:                  -0.933
 UNBOUND:                -0.751
 SMILES CC1(C)CN2[C@H](CSC(NC3CCCCC3)NC3CCCCC3)CS[C@@H]2N1
 SMILES IDX 8 1 7 2 6 3 2 4 27 5 4 6 26 7 5 8 25 9 24 10 1 11 3 12 9 14
 SMILES IDX 10 15 11 17 12 18 16 19 13 20 15 21 14 22 17 23 18 25 19 26
 SMILES IDX 23 27 20 28 22 29 21 30
 H PARENT 27 13 10 16 17 24

>  <TORSDO>
F 7

$$$$
D:\Codex\projectless-workspaces\2026-08-22\non\work\whynot17\analysis\dinp_crc_structural_pipeline\outputs\stage2_refine_and_rescue\cxcr4_refinement\it1t_s0.70_e32_seed3001.pdbqt
 OpenBabel09032623223D

 30 33  0  0  1  0  0  0  0  0999 V2000
   15.3680   -5.2870   74.3260 S   0  0  0  0  0  0  0  0  0  0  0  0
   13.8030   -4.5050   74.0900 C   0  0  0  0  0  2  0  0  0  0  0  0
   13.3310   -3.9930   75.4290 C   0  0  0  0  0  0  0  0  0  0  0  0
   14.7430   -0.9070   76.7440 C   0  0  0  0  0  0  0  0  0  0  0  0
   13.7770   -1.4710   77.6860 N   0  0  0  0  0  0  0  0  0  0  0  0
   14.8750   -1.9380   75.6130 C   0  0  0  0  0  2  0  0  0  0  0  0
   13.3120   -2.6180   77.1740 C   0  0  2  0  0  3  0  0  0  0  0  0
   13.8400   -2.8760   76.0090 N   0  0  0  0  0  0  0  0  0  0  0  0
   12.0240   -3.6550   77.6240 S   0  0  0  0  0  0  0  0  0  0  0  0
   12.2970   -4.5970   76.1840 C   0  0  0  0  0  3  0  0  0  0  0  0
   16.0790   -0.7150   77.4470 C   0  0  0  0  0  1  0  0  0  0  0  0
   14.2040    0.4070   76.1830 C   0  0  0  0  0  1  0  0  0  0  0  0
   14.2360   -1.6540   78.5900 H   0  0  0  0  0  0  0  0  0  0  0  0
   15.1020   -6.8060   74.9740 C   0  0  0  0  0  3  0  0  0  0  0  0
   15.2070   -6.8990   76.3030 N   0  0  0  0  0  0  0  0  0  0  0  0
   14.8240   -6.0090   76.6490 H   0  0  0  0  0  0  0  0  0  0  0  0
   16.3800   -7.1290   77.1340 C   0  0  0  0  0  3  0  0  0  0  0  0
   16.3190   -6.4920   78.5150 C   0  0  0  0  0  2  0  0  0  0  0  0
   17.7520   -6.9410   76.5070 C   0  0  0  0  0  2  0  0  0  0  0  0
   17.3150   -7.1930   79.4370 C   0  0  0  0  0  2  0  0  0  0  0  0
   18.8100   -7.6010   77.3950 C   0  0  0  0  0  2  0  0  0  0  0  0
   18.7370   -7.1870   78.8730 C   0  0  0  0  0  2  0  0  0  0  0  0
   14.8220   -7.8530   74.1850 N   0  0  0  0  0  0  0  0  0  0  0  0
   15.7330   -8.2980   74.0010 H   0  0  0  0  0  0  0  0  0  0  0  0
   14.1480   -7.8240   72.8860 C   0  0  0  0  0  3  0  0  0  0  0  0
   15.0220   -7.9180   71.6380 C   0  0  0  0  0  2  0  0  0  0  0  0
   12.9800   -8.8000   72.7960 C   0  0  0  0  0  2  0  0  0  0  0  0
   14.1970   -7.6340   70.3830 C   0  0  0  0  0  2  0  0  0  0  0  0
   12.1270   -8.5110   71.5610 C   0  0  0  0  0  2  0  0  0  0  0  0
   12.9580   -8.5260   70.2810 C   0  0  0  0  0  2  0  0  0  0  0  0
  1 14  1  0  0  0  0
  2  1  1  0  0  0  0
  2  3  1  0  0  0  0
  3  8  1  0  0  0  0
  3 10  2  0  0  0  0
  4 11  1  0  0  0  0
  4  5  1  0  0  0  0
  5 13  1  0  0  0  0
  6  8  1  0  0  0  0
  6  4  1  0  0  0  0
  7  9  1  6  0  0  0
  7  5  1  0  0  0  0
  8  7  1  0  0  0  0
 10  9  1  0  0  0  0
 12  4  1  0  0  0  0
 14 15  1  0  0  0  0
 15 16  1  0  0  0  0
 15 17  1  0  0  0  0
 17 18  1  0  0  0  0
 18 20  1  0  0  0  0
 19 17  1  0  0  0  0
 19 21  1  0  0  0  0
 21 22  1  0  0  0  0
 22 20  1  0  0  0  0
 23 14  1  0  0  0  0
 24 23  1  0  0  0  0
 25 23  1  0  0  0  0
 26 25  1  0  0  0  0
 27 25  1  0  0  0  0
 28 26  1  0  0  0  0
 29 27  1  0  0  0  0
 30 28  1  0  0  0  0
 30 29  1  0  0  0  0
M  END
>  <MODEL>
8

>  <REMARK>
 VINA RESULT:    -5.623      1.416      5.562
 INTER + INTRA:          -8.675
 INTER:                  -7.888
 INTRA:                  -0.787
 UNBOUND:                -0.751
 SMILES CC1(C)CN2[C@H](CSC(NC3CCCCC3)NC3CCCCC3)CS[C@@H]2N1
 SMILES IDX 8 1 7 2 6 3 2 4 27 5 4 6 26 7 5 8 25 9 24 10 1 11 3 12 9 14
 SMILES IDX 10 15 11 17 12 18 16 19 13 20 15 21 14 22 17 23 18 25 19 26
 SMILES IDX 23 27 20 28 22 29 21 30
 H PARENT 27 13 10 16 17 24

>  <TORSDO>
F 7

$$$$
D:\Codex\projectless-workspaces\2026-08-22\non\work\whynot17\analysis\dinp_crc_structural_pipeline\outputs\stage2_refine_and_rescue\cxcr4_refinement\it1t_s0.70_e32_seed3001.pdbqt
 OpenBabel09032623223D

 30 33  0  0  1  0  0  0  0  0999 V2000
   13.7120   -4.4260   74.0020 S   0  0  0  0  0  0  0  0  0  0  0  0
   12.1250   -4.8520   73.3560 C   0  0  0  0  0  2  0  0  0  0  0  0
   12.3340   -5.6190   72.0730 C   0  0  0  0  0  0  0  0  0  0  0  0
   13.4510   -9.0790   72.2380 C   0  0  0  0  0  0  0  0  0  0  0  0
   13.3020   -8.6540   70.8470 N   0  0  0  0  0  0  0  0  0  0  0  0
   13.1990   -7.8240   73.0880 C   0  0  0  0  0  2  0  0  0  0  0  0
   12.9240   -7.3690   70.8390 C   0  0  2  0  0  3  0  0  0  0  0  0
   12.7920   -6.8960   72.0480 N   0  0  0  0  0  0  0  0  0  0  0  0
   12.3630   -6.3300   69.5970 S   0  0  0  0  0  0  0  0  0  0  0  0
   12.0400   -5.1010   70.7890 C   0  0  0  0  0  3  0  0  0  0  0  0
   14.8650   -9.5960   72.4590 C   0  0  0  0  0  1  0  0  0  0  0  0
   12.4030  -10.1400   72.5650 C   0  0  0  0  0  1  0  0  0  0  0  0
   14.2000   -8.7560   70.3530 H   0  0  0  0  0  0  0  0  0  0  0  0
   13.6460   -4.5350   75.6690 C   0  0  0  0  0  3  0  0  0  0  0  0
   13.2690   -3.4250   76.3120 N   0  0  0  0  0  0  0  0  0  0  0  0
   12.5040   -3.0480   75.7360 H   0  0  0  0  0  0  0  0  0  0  0  0
   14.0450   -2.2520   76.6840 C   0  0  0  0  0  3  0  0  0  0  0  0
   13.9310   -1.0780   75.7220 C   0  0  0  0  0  2  0  0  0  0  0  0
   15.4850   -2.4550   77.1290 C   0  0  0  0  0  2  0  0  0  0  0  0
   14.3470    0.2050   76.4410 C   0  0  0  0  0  2  0  0  0  0  0  0
   15.9790   -1.1920   77.8400 C   0  0  0  0  0  2  0  0  0  0  0  0
   15.7460    0.1050   77.0500 C   0  0  0  0  0  2  0  0  0  0  0  0
   13.9740   -5.6710   76.3000 N   0  0  0  0  0  0  0  0  0  0  0  0
   13.1250   -5.9410   76.8190 H   0  0  0  0  0  0  0  0  0  0  0  0
   15.0720   -5.8710   77.2470 C   0  0  0  0  0  3  0  0  0  0  0  0
   14.7800   -5.6290   78.7260 C   0  0  0  0  0  2  0  0  0  0  0  0
   15.7960   -7.1990   77.0550 C   0  0  0  0  0  2  0  0  0  0  0  0
   16.0740   -5.6440   79.5380 C   0  0  0  0  0  2  0  0  0  0  0  0
   17.1070   -7.2190   77.8380 C   0  0  0  0  0  2  0  0  0  0  0  0
   16.8900   -6.9190   79.3180 C   0  0  0  0  0  2  0  0  0  0  0  0
  1 14  1  0  0  0  0
  2  1  1  0  0  0  0
  3  2  1  0  0  0  0
  4 11  1  0  0  0  0
  4 12  1  0  0  0  0
  4  6  1  0  0  0  0
  5  4  1  0  0  0  0
  7  9  1  1  0  0  0
  7  5  1  0  0  0  0
  7  8  1  0  0  0  0
  8  3  1  0  0  0  0
  8  6  1  0  0  0  0
  9 10  1  0  0  0  0
 10  3  2  0  0  0  0
 13  5  1  0  0  0  0
 14 23  1  0  0  0  0
 14 15  1  0  0  0  0
 15 17  1  0  0  0  0
 16 15  1  0  0  0  0
 17 19  1  0  0  0  0
 18 20  1  0  0  0  0
 18 17  1  0  0  0  0
 19 21  1  0  0  0  0
 20 22  1  0  0  0  0
 22 21  1  0  0  0  0
 23 24  1  0  0  0  0
 23 25  1  0  0  0  0
 25 26  1  0  0  0  0
 26 28  1  0  0  0  0
 27 25  1  0  0  0  0
 27 29  1  0  0  0  0
 29 30  1  0  0  0  0
 30 28  1  0  0  0  0
M  END
>  <MODEL>
9

>  <REMARK>
 VINA RESULT:    -5.585      2.236      6.561
 INTER + INTRA:          -8.622
 INTER:                  -7.781
 INTRA:                  -0.841
 UNBOUND:                -0.751
 SMILES CC1(C)CN2[C@H](CSC(NC3CCCCC3)NC3CCCCC3)CS[C@@H]2N1
 SMILES IDX 8 1 7 2 6 3 2 4 27 5 4 6 26 7 5 8 25 9 24 10 1 11 3 12 9 14
 SMILES IDX 10 15 11 17 12 18 16 19 13 20 15 21 14 22 17 23 18 25 19 26
 SMILES IDX 23 27 20 28 22 29 21 30
 H PARENT 27 13 10 16 17 24

>  <TORSDO>
F 7

$$$$
D:\Codex\projectless-workspaces\2026-08-22\non\work\whynot17\analysis\dinp_crc_structural_pipeline\outputs\stage2_refine_and_rescue\cxcr4_refinement\it1t_s0.70_e32_seed3001.pdbqt
 OpenBabel09032623223D

 30 33  0  0  1  0  0  0  0  0999 V2000
   14.7660   -5.2990   74.3410 S   0  0  0  0  0  0  0  0  0  0  0  0
   15.2950   -6.6460   73.3280 C   0  0  0  0  0  2  0  0  0  0  0  0
   14.0810   -7.4750   72.9840 C   0  0  0  0  0  0  0  0  0  0  0  0
   13.0230   -7.7090   69.5090 C   0  0  0  0  0  0  0  0  0  0  0  0
   12.1180   -8.4670   70.3730 N   0  0  0  0  0  0  0  0  0  0  0  0
   14.0010   -6.9930   70.4530 C   0  0  0  0  0  2  0  0  0  0  0  0
   12.5280   -8.3220   71.6400 C   0  0  2  0  0  3  0  0  0  0  0  0
   13.5960   -7.5760   71.7200 N   0  0  0  0  0  0  0  0  0  0  0  0
   12.0830   -9.0970   73.1020 S   0  0  0  0  0  0  0  0  0  0  0  0
   13.3620   -8.2490   73.9260 C   0  0  0  0  0  3  0  0  0  0  0  0
   12.2220   -6.6950   68.7050 C   0  0  0  0  0  1  0  0  0  0  0  0
   13.7910   -8.6690   68.6040 C   0  0  0  0  0  1  0  0  0  0  0  0
   11.1580   -8.1050   70.2740 H   0  0  0  0  0  0  0  0  0  0  0  0
   15.7370   -5.2540   75.7010 C   0  0  0  0  0  3  0  0  0  0  0  0
   16.5300   -6.3140   75.8880 N   0  0  0  0  0  0  0  0  0  0  0  0
   15.8870   -7.1180   75.8480 H   0  0  0  0  0  0  0  0  0  0  0  0
   17.4250   -6.6290   76.9910 C   0  0  0  0  0  3  0  0  0  0  0  0
   18.7350   -7.2870   76.5840 C   0  0  0  0  0  2  0  0  0  0  0  0
   16.8370   -7.3000   78.2220 C   0  0  0  0  0  2  0  0  0  0  0  0
   19.7590   -7.1070   77.7030 C   0  0  0  0  0  2  0  0  0  0  0  0
   17.8260   -7.1790   79.3850 C   0  0  0  0  0  2  0  0  0  0  0  0
   19.2540   -7.6350   79.0470 C   0  0  0  0  0  2  0  0  0  0  0  0
   15.6920   -4.2150   76.5460 N   0  0  0  0  0  0  0  0  0  0  0  0
   15.5330   -4.6350   77.4740 H   0  0  0  0  0  0  0  0  0  0  0  0
   14.7820   -3.0700   76.4910 C   0  0  0  0  0  3  0  0  0  0  0  0
   13.8370   -2.8640   77.6730 C   0  0  0  0  0  2  0  0  0  0  0  0
   15.4820   -1.7640   76.1320 C   0  0  0  0  0  2  0  0  0  0  0  0
   12.8030   -1.7860   77.3520 C   0  0  0  0  0  2  0  0  0  0  0  0
   14.4620   -0.6820   75.7800 C   0  0  0  0  0  2  0  0  0  0  0  0
   13.4460   -0.4730   76.8990 C   0  0  0  0  0  2  0  0  0  0  0  0
  1 14  1  0  0  0  0
  2  1  1  0  0  0  0
  3  2  1  0  0  0  0
  3 10  2  0  0  0  0
  4  5  1  0  0  0  0
  4  6  1  0  0  0  0
  5  7  1  0  0  0  0
  6  8  1  0  0  0  0
  7  8  1  0  0  0  0
  7  9  1  6  0  0  0
  8  3  1  0  0  0  0
  9 10  1  0  0  0  0
 11  4  1  0  0  0  0
 12  4  1  0  0  0  0
 13  5  1  0  0  0  0
 14 15  1  0  0  0  0
 14 23  1  0  0  0  0
 15 17  1  0  0  0  0
 16 15  1  0  0  0  0
 17 19  1  0  0  0  0
 18 17  1  0  0  0  0
 18 20  1  0  0  0  0
 19 21  1  0  0  0  0
 20 22  1  0  0  0  0
 22 21  1  0  0  0  0
 23 24  1  0  0  0  0
 25 23  1  0  0  0  0
 25 26  1  0  0  0  0
 27 25  1  0  0  0  0
 28 26  1  0  0  0  0
 29 27  1  0  0  0  0
 29 30  1  0  0  0  0
 30 28  1  0  0  0  0
M  END
>  <MODEL>
10

>  <REMARK>
 VINA RESULT:    -5.522      2.086      7.473
 INTER + INTRA:          -8.533
 INTER:                  -7.809
 INTRA:                  -0.724
 UNBOUND:                -0.751
 SMILES CC1(C)CN2[C@H](CSC(NC3CCCCC3)NC3CCCCC3)CS[C@@H]2N1
 SMILES IDX 8 1 7 2 6 3 2 4 27 5 4 6 26 7 5 8 25 9 24 10 1 11 3 12 9 14
 SMILES IDX 10 15 11 17 12 18 16 19 13 20 15 21 14 22 17 23 18 25 19 26
 SMILES IDX 23 27 20 28 22 29 21 30
 H PARENT 27 13 10 16 17 24

>  <TORSDO>
F 7

$$$$
D:\Codex\projectless-workspaces\2026-08-22\non\work\whynot17\analysis\dinp_crc_structural_pipeline\outputs\stage2_refine_and_rescue\cxcr4_refinement\it1t_s0.70_e32_seed3001.pdbqt
 OpenBabel09032623223D

 30 33  0  0  1  0  0  0  0  0999 V2000
   12.3060   -3.5670   75.3000 S   0  0  0  0  0  0  0  0  0  0  0  0
   12.6280   -4.3430   76.8530 C   0  0  0  0  0  2  0  0  0  0  0  0
   12.9810   -5.7870   76.5890 C   0  0  0  0  0  0  0  0  0  0  0  0
   16.3730   -6.9310   77.2490 C   0  0  0  0  0  0  0  0  0  0  0  0
   15.5580   -8.0230   76.7180 N   0  0  0  0  0  0  0  0  0  0  0  0
   15.4860   -5.6770   77.1870 C   0  0  0  0  0  2  0  0  0  0  0  0
   14.3330   -7.5450   76.4610 C   0  0  2  0  0  3  0  0  0  0  0  0
   14.2330   -6.2800   76.7660 N   0  0  0  0  0  0  0  0  0  0  0  0
   12.8520   -8.3030   76.0510 S   0  0  0  0  0  0  0  0  0  0  0  0
   12.0450   -6.7640   76.1740 C   0  0  0  0  0  3  0  0  0  0  0  0
   17.6070   -6.7510   76.3760 C   0  0  0  0  0  1  0  0  0  0  0  0
   16.7450   -7.2270   78.7000 C   0  0  0  0  0  1  0  0  0  0  0  0
   15.9800   -8.3830   75.8510 H   0  0  0  0  0  0  0  0  0  0  0  0
   13.6610   -3.7410   74.3370 C   0  0  0  0  0  3  0  0  0  0  0  0
   14.7730   -3.1460   74.7820 N   0  0  0  0  0  0  0  0  0  0  0  0
   15.2860   -3.8990   75.2610 H   0  0  0  0  0  0  0  0  0  0  0  0
   14.9310   -1.9950   75.6580 C   0  0  0  0  0  3  0  0  0  0  0  0
   14.5140   -0.6650   75.0480 C   0  0  0  0  0  2  0  0  0  0  0  0
   16.2320   -1.8570   76.4320 C   0  0  0  0  0  2  0  0  0  0  0  0
   14.2460    0.3400   76.1670 C   0  0  0  0  0  2  0  0  0  0  0  0
   16.0440   -0.8410   77.5620 C   0  0  0  0  0  2  0  0  0  0  0  0
   15.4410    0.4980   77.1090 C   0  0  0  0  0  2  0  0  0  0  0  0
   13.6050   -4.4220   73.1840 N   0  0  0  0  0  0  0  0  0  0  0  0
   12.8130   -4.0100   72.6700 H   0  0  0  0  0  0  0  0  0  0  0  0
   13.4490   -5.8680   73.0200 C   0  0  0  0  0  3  0  0  0  0  0  0
   12.3400   -6.3550   72.0900 C   0  0  0  0  0  2  0  0  0  0  0  0
   14.7590   -6.5810   72.7080 C   0  0  0  0  0  2  0  0  0  0  0  0
   12.1570   -7.8670   72.2180 C   0  0  0  0  0  2  0  0  0  0  0  0
   14.6020   -8.0940   72.8590 C   0  0  0  0  0  2  0  0  0  0  0  0
   13.4630   -8.6350   72.0010 C   0  0  0  0  0  2  0  0  0  0  0  0
  1  2  1  0  0  0  0
  3  8  1  0  0  0  0
  3  2  1  0  0  0  0
  4 12  1  0  0  0  0
  5  4  1  0  0  0  0
  6  4  1  0  0  0  0
  7  9  1  1  0  0  0
  7  5  1  0  0  0  0
  7  8  1  0  0  0  0
  8  6  1  0  0  0  0
  9 10  1  0  0  0  0
 10  3  2  0  0  0  0
 11  4  1  0  0  0  0
 13  5  1  0  0  0  0
 14 15  1  0  0  0  0
 14  1  1  0  0  0  0
 15 16  1  0  0  0  0
 15 17  1  0  0  0  0
 17 19  1  0  0  0  0
 18 17  1  0  0  0  0
 18 20  1  0  0  0  0
 19 21  1  0  0  0  0
 20 22  1  0  0  0  0
 22 21  1  0  0  0  0
 23 14  1  0  0  0  0
 24 23  1  0  0  0  0
 25 23  1  0  0  0  0
 26 28  1  0  0  0  0
 26 25  1  0  0  0  0
 27 29  1  0  0  0  0
 27 25  1  0  0  0  0
 30 28  1  0  0  0  0
 30 29  1  0  0  0  0
M  END
>  <MODEL>
11

>  <REMARK>
 VINA RESULT:    -5.341      1.730      6.643
 INTER + INTRA:          -8.278
 INTER:                  -6.856
 INTRA:                  -1.422
 UNBOUND:                -0.751
 SMILES CC1(C)CN2[C@H](CSC(NC3CCCCC3)NC3CCCCC3)CS[C@@H]2N1
 SMILES IDX 8 1 7 2 6 3 2 4 27 5 4 6 26 7 5 8 25 9 24 10 1 11 3 12 9 14
 SMILES IDX 10 15 11 17 12 18 16 19 13 20 15 21 14 22 17 23 18 25 19 26
 SMILES IDX 23 27 20 28 22 29 21 30
 H PARENT 27 13 10 16 17 24

>  <TORSDO>
F 7

$$$$
D:\Codex\projectless-workspaces\2026-08-22\non\work\whynot17\analysis\dinp_crc_structural_pipeline\outputs\stage2_refine_and_rescue\cxcr4_refinement\it1t_s0.70_e32_seed3001.pdbqt
 OpenBabel09032623223D

 30 33  0  0  1  0  0  0  0  0999 V2000
   14.2970   -3.8940   78.9250 S   0  0  0  0  0  0  0  0  0  0  0  0
   15.6880   -2.9200   78.4420 C   0  0  0  0  0  2  0  0  0  0  0  0
   15.1760   -1.7150   77.6910 C   0  0  0  0  0  0  0  0  0  0  0  0
   14.5140   -2.0000   74.1230 C   0  0  0  0  0  0  0  0  0  0  0  0
   14.2390   -0.6410   74.5880 N   0  0  0  0  0  0  0  0  0  0  0  0
   15.1130   -2.7420   75.3280 C   0  0  0  0  0  2  0  0  0  0  0  0
   14.5290   -0.5790   75.8950 C   0  0  2  0  0  3  0  0  0  0  0  0
   14.9480   -1.7270   76.3530 N   0  0  0  0  0  0  0  0  0  0  0  0
   14.2360    0.6090   77.0950 S   0  0  0  0  0  0  0  0  0  0  0  0
   14.8500   -0.4820   78.3060 C   0  0  0  0  0  3  0  0  0  0  0  0
   15.5160   -1.9490   72.9790 C   0  0  0  0  0  1  0  0  0  0  0  0
   13.2090   -2.6720   73.7020 C   0  0  0  0  0  1  0  0  0  0  0  0
   14.8230    0.0300   74.0690 H   0  0  0  0  0  0  0  0  0  0  0  0
   14.3400   -5.3290   78.0690 C   0  0  0  0  0  3  0  0  0  0  0  0
   13.6020   -5.3670   76.9550 N   0  0  0  0  0  0  0  0  0  0  0  0
   12.6440   -5.1780   77.2820 H   0  0  0  0  0  0  0  0  0  0  0  0
   13.4390   -6.4330   75.9770 C   0  0  0  0  0  3  0  0  0  0  0  0
   14.2880   -6.2840   74.7230 C   0  0  0  0  0  2  0  0  0  0  0  0
   12.0280   -6.8800   75.6320 C   0  0  0  0  0  2  0  0  0  0  0  0
   14.4210   -7.6450   74.0400 C   0  0  0  0  0  2  0  0  0  0  0  0
   12.0850   -8.2340   74.9190 C   0  0  0  0  0  2  0  0  0  0  0  0
   13.0630   -8.2790   73.7340 C   0  0  0  0  0  2  0  0  0  0  0  0
   15.0640   -6.3700   78.5040 N   0  0  0  0  0  0  0  0  0  0  0  0
   14.8380   -6.4500   79.5060 H   0  0  0  0  0  0  0  0  0  0  0  0
   16.5170   -6.5270   78.4320 C   0  0  0  0  0  3  0  0  0  0  0  0
   17.2370   -7.0000   79.6930 C   0  0  0  0  0  2  0  0  0  0  0  0
   16.9750   -7.3320   77.2220 C   0  0  0  0  0  2  0  0  0  0  0  0
   18.7510   -6.8790   79.5240 C   0  0  0  0  0  2  0  0  0  0  0  0
   18.4840   -7.1990   77.0210 C   0  0  0  0  0  2  0  0  0  0  0  0
   19.2600   -7.5960   78.2720 C   0  0  0  0  0  2  0  0  0  0  0  0
  2  1  1  0  0  0  0
  3 10  2  0  0  0  0
  3  2  1  0  0  0  0
  4  5  1  0  0  0  0
  4  6  1  0  0  0  0
  5  7  1  0  0  0  0
  6  8  1  0  0  0  0
  7  8  1  0  0  0  0
  7  9  1  1  0  0  0
  8  3  1  0  0  0  0
  9 10  1  0  0  0  0
 11  4  1  0  0  0  0
 12  4  1  0  0  0  0
 13  5  1  0  0  0  0
 14 23  1  0  0  0  0
 14  1  1  0  0  0  0
 15 16  1  0  0  0  0
 15 14  1  0  0  0  0
 17 15  1  0  0  0  0
 18 17  1  0  0  0  0
 19 17  1  0  0  0  0
 20 18  1  0  0  0  0
 21 19  1  0  0  0  0
 22 20  1  0  0  0  0
 22 21  1  0  0  0  0
 23 24  1  0  0  0  0
 25 23  1  0  0  0  0
 25 26  1  0  0  0  0
 27 25  1  0  0  0  0
 28 26  1  0  0  0  0
 29 27  1  0  0  0  0
 29 30  1  0  0  0  0
 30 28  1  0  0  0  0
M  END
>  <MODEL>
12

>  <REMARK>
 VINA RESULT:    -5.270      1.928      3.190
 INTER + INTRA:          -8.178
 INTER:                  -6.784
 INTRA:                  -1.394
 UNBOUND:                -0.751
 SMILES CC1(C)CN2[C@H](CSC(NC3CCCCC3)NC3CCCCC3)CS[C@@H]2N1
 SMILES IDX 8 1 7 2 6 3 2 4 27 5 4 6 26 7 5 8 25 9 24 10 1 11 3 12 9 14
 SMILES IDX 10 15 11 17 12 18 16 19 13 20 15 21 14 22 17 23 18 25 19 26
 SMILES IDX 23 27 20 28 22 29 21 30
 H PARENT 27 13 10 16 17 24

>  <TORSDO>
F 7

$$$$
D:\Codex\projectless-workspaces\2026-08-22\non\work\whynot17\analysis\dinp_crc_structural_pipeline\outputs\stage2_refine_and_rescue\cxcr4_refinement\it1t_s0.70_e32_seed3001.pdbqt
 OpenBabel09032623223D

 30 33  0  0  1  0  0  0  0  0999 V2000
   15.5900   -6.3120   74.7460 S   0  0  0  0  0  0  0  0  0  0  0  0
   15.5490   -6.6360   73.0110 C   0  0  0  0  0  2  0  0  0  0  0  0
   14.3020   -7.4340   72.7150 C   0  0  0  0  0  0  0  0  0  0  0  0
   13.1230   -7.6730   69.2800 C   0  0  0  0  0  0  0  0  0  0  0  0
   12.2270   -8.3960   70.1810 N   0  0  0  0  0  0  0  0  0  0  0  0
   14.1520   -6.9750   70.1830 C   0  0  0  0  0  2  0  0  0  0  0  0
   12.6830   -8.2510   71.4320 C   0  0  2  0  0  3  0  0  0  0  0  0
   13.7730   -7.5340   71.4690 N   0  0  0  0  0  0  0  0  0  0  0  0
   12.2650   -8.9990   72.9160 S   0  0  0  0  0  0  0  0  0  0  0  0
   13.5940   -8.1790   73.6880 C   0  0  0  0  0  3  0  0  0  0  0  0
   12.3240   -6.6440   68.4920 C   0  0  0  0  0  1  0  0  0  0  0  0
   13.8340   -8.6620   68.3600 C   0  0  0  0  0  1  0  0  0  0  0  0
   11.2750   -8.0090   70.1100 H   0  0  0  0  0  0  0  0  0  0  0  0
   14.6760   -4.9460   75.0460 C   0  0  0  0  0  3  0  0  0  0  0  0
   15.2160   -3.7850   74.6600 N   0  0  0  0  0  0  0  0  0  0  0  0
   16.2100   -4.0080   74.5110 H   0  0  0  0  0  0  0  0  0  0  0  0
   15.2390   -2.4950   75.3320 C   0  0  0  0  0  3  0  0  0  0  0  0
   15.7890   -2.5220   76.7510 C   0  0  0  0  0  2  0  0  0  0  0  0
   14.0000   -1.6190   75.2440 C   0  0  0  0  0  2  0  0  0  0  0  0
   16.2270   -1.1140   77.1480 C   0  0  0  0  0  2  0  0  0  0  0  0
   14.3600   -0.1880   75.6550 C   0  0  0  0  0  2  0  0  0  0  0  0
   15.1020   -0.0880   76.9960 C   0  0  0  0  0  2  0  0  0  0  0  0
   13.4850   -5.0320   75.6550 N   0  0  0  0  0  0  0  0  0  0  0  0
   13.0070   -4.1480   75.4290 H   0  0  0  0  0  0  0  0  0  0  0  0
   13.2360   -5.2400   77.0820 C   0  0  0  0  0  3  0  0  0  0  0  0
   12.2200   -4.3240   77.7600 C   0  0  0  0  0  2  0  0  0  0  0  0
   12.9640   -6.6970   77.4370 C   0  0  0  0  0  2  0  0  0  0  0  0
   12.2570   -4.5100   79.2770 C   0  0  0  0  0  2  0  0  0  0  0  0
   13.0260   -6.9070   78.9500 C   0  0  0  0  0  2  0  0  0  0  0  0
   12.0770   -5.9720   79.6920 C   0  0  0  0  0  2  0  0  0  0  0  0
  1 14  1  0  0  0  0
  2  1  1  0  0  0  0
  3  2  1  0  0  0  0
  3 10  2  0  0  0  0
  4  5  1  0  0  0  0
  4  6  1  0  0  0  0
  5  7  1  0  0  0  0
  6  8  1  0  0  0  0
  7  8  1  0  0  0  0
  7  9  1  6  0  0  0
  8  3  1  0  0  0  0
  9 10  1  0  0  0  0
 11  4  1  0  0  0  0
 12  4  1  0  0  0  0
 13  5  1  0  0  0  0
 14 23  1  0  0  0  0
 15 14  1  0  0  0  0
 15 17  1  0  0  0  0
 16 15  1  0  0  0  0
 17 18  1  0  0  0  0
 18 20  1  0  0  0  0
 19 17  1  0  0  0  0
 19 21  1  0  0  0  0
 21 22  1  0  0  0  0
 22 20  1  0  0  0  0
 23 25  1  0  0  0  0
 24 23  1  0  0  0  0
 25 27  1  0  0  0  0
 25 26  1  0  0  0  0
 26 28  1  0  0  0  0
 27 29  1  0  0  0  0
 28 30  1  0  0  0  0
 29 30  1  0  0  0  0
M  END
>  <MODEL>
13

>  <REMARK>
 VINA RESULT:    -5.251      3.042      7.325
 INTER + INTRA:          -8.151
 INTER:                  -7.126
 INTRA:                  -1.025
 UNBOUND:                -0.751
 SMILES CC1(C)CN2[C@H](CSC(NC3CCCCC3)NC3CCCCC3)CS[C@@H]2N1
 SMILES IDX 8 1 7 2 6 3 2 4 27 5 4 6 26 7 5 8 25 9 24 10 1 11 3 12 9 14
 SMILES IDX 10 15 11 17 12 18 16 19 13 20 15 21 14 22 17 23 18 25 19 26
 SMILES IDX 23 27 20 28 22 29 21 30
 H PARENT 27 13 10 16 17 24

>  <TORSDO>
F 7

$$$$
D:\Codex\projectless-workspaces\2026-08-22\non\work\whynot17\analysis\dinp_crc_structural_pipeline\outputs\stage2_refine_and_rescue\cxcr4_refinement\it1t_s0.70_e32_seed3001.pdbqt
 OpenBabel09032623223D

 30 33  0  0  1  0  0  0  0  0999 V2000
   12.1910   -3.6230   75.1370 S   0  0  0  0  0  0  0  0  0  0  0  0
   12.5490   -4.3460   76.7080 C   0  0  0  0  0  2  0  0  0  0  0  0
   12.9160   -5.7930   76.4820 C   0  0  0  0  0  0  0  0  0  0  0  0
   16.3280   -6.8800   77.1300 C   0  0  0  0  0  0  0  0  0  0  0  0
   15.5190   -7.9960   76.6430 N   0  0  0  0  0  0  0  0  0  0  0  0
   15.4260   -5.6390   77.0420 C   0  0  0  0  0  2  0  0  0  0  0  0
   14.2850   -7.5400   76.3880 C   0  0  2  0  0  3  0  0  0  0  0  0
   14.1750   -6.2670   76.6560 N   0  0  0  0  0  0  0  0  0  0  0  0
   12.8070   -8.3260   76.0220 S   0  0  0  0  0  0  0  0  0  0  0  0
   11.9850   -6.7930   76.1090 C   0  0  0  0  0  3  0  0  0  0  0  0
   17.5490   -6.7140   76.2340 C   0  0  0  0  0  1  0  0  0  0  0  0
   16.7230   -7.1270   78.5830 C   0  0  0  0  0  1  0  0  0  0  0  0
   15.9340   -8.3780   75.7820 H   0  0  0  0  0  0  0  0  0  0  0  0
   13.5730   -3.6980   74.1980 C   0  0  0  0  0  3  0  0  0  0  0  0
   13.4770   -4.4190   73.0760 N   0  0  0  0  0  0  0  0  0  0  0  0
   12.6240   -4.0650   72.6220 H   0  0  0  0  0  0  0  0  0  0  0  0
   13.4040   -5.8610   72.8950 C   0  0  0  0  0  3  0  0  0  0  0  0
   14.7370   -6.5390   72.6110 C   0  0  0  0  0  2  0  0  0  0  0  0
   12.3080   -6.4160   72.0000 C   0  0  0  0  0  2  0  0  0  0  0  0
   14.6250   -8.0270   72.9370 C   0  0  0  0  0  2  0  0  0  0  0  0
   12.1560   -7.9180   72.2560 C   0  0  0  0  0  2  0  0  0  0  0  0
   13.4740   -8.7040   72.1900 C   0  0  0  0  0  2  0  0  0  0  0  0
   14.7000   -3.0810   74.5790 N   0  0  0  0  0  0  0  0  0  0  0  0
   15.3300   -3.8400   74.8770 H   0  0  0  0  0  0  0  0  0  0  0  0
   14.8380   -2.0510   75.6100 C   0  0  0  0  0  3  0  0  0  0  0  0
   16.1800   -1.9530   76.3310 C   0  0  0  0  0  2  0  0  0  0  0  0
   14.3770   -0.6740   75.1460 C   0  0  0  0  0  2  0  0  0  0  0  0
   16.0790   -1.0040   77.5250 C   0  0  0  0  0  2  0  0  0  0  0  0
   14.2430    0.2800   76.3330 C   0  0  0  0  0  2  0  0  0  0  0  0
   15.5370    0.3730   77.1360 C   0  0  0  0  0  2  0  0  0  0  0  0
  1  2  1  0  0  0  0
  3  8  1  0  0  0  0
  3  2  1  0  0  0  0
  4 12  1  0  0  0  0
  5  4  1  0  0  0  0
  6  4  1  0  0  0  0
  7  9  1  1  0  0  0
  7  5  1  0  0  0  0
  7  8  1  0  0  0  0
  8  6  1  0  0  0  0
  9 10  1  0  0  0  0
 10  3  2  0  0  0  0
 11  4  1  0  0  0  0
 13  5  1  0  0  0  0
 14 23  1  0  0  0  0
 14  1  1  0  0  0  0
 15 14  1  0  0  0  0
 16 15  1  0  0  0  0
 17 15  1  0  0  0  0
 18 17  1  0  0  0  0
 18 20  1  0  0  0  0
 19 21  1  0  0  0  0
 19 17  1  0  0  0  0
 22 21  1  0  0  0  0
 22 20  1  0  0  0  0
 23 24  1  0  0  0  0
 23 25  1  0  0  0  0
 25 26  1  0  0  0  0
 26 28  1  0  0  0  0
 27 25  1  0  0  0  0
 27 29  1  0  0  0  0
 29 30  1  0  0  0  0
 30 28  1  0  0  0  0
M  END
>  <MODEL>
14

>  <REMARK>
 VINA RESULT:    -5.231      1.753      5.494
 INTER + INTRA:          -8.123
 INTER:                  -6.737
 INTRA:                  -1.386
 UNBOUND:                -0.751
 SMILES CC1(C)CN2[C@H](CSC(NC3CCCCC3)NC3CCCCC3)CS[C@@H]2N1
 SMILES IDX 8 1 7 2 6 3 2 4 27 5 4 6 26 7 5 8 25 9 24 10 1 11 3 12 9 14
 SMILES IDX 10 15 11 17 12 18 16 19 13 20 15 21 14 22 17 23 18 25 19 26
 SMILES IDX 23 27 20 28 22 29 21 30
 H PARENT 27 13 10 16 17 24

>  <TORSDO>
F 7

$$$$
D:\Codex\projectless-workspaces\2026-08-22\non\work\whynot17\analysis\dinp_crc_structural_pipeline\outputs\stage2_refine_and_rescue\cxcr4_refinement\it1t_s0.70_e32_seed3001.pdbqt
 OpenBabel09032623223D

 30 33  0  0  1  0  0  0  0  0999 V2000
   15.2950   -5.3570   74.2050 S   0  0  0  0  0  0  0  0  0  0  0  0
   14.1360   -4.0620   73.8910 C   0  0  0  0  0  2  0  0  0  0  0  0
   13.5260   -3.6520   75.2090 C   0  0  0  0  0  0  0  0  0  0  0  0
   14.8430   -0.7350   76.9420 C   0  0  0  0  0  0  0  0  0  0  0  0
   13.7640   -1.3480   77.7170 N   0  0  0  0  0  0  0  0  0  0  0  0
   15.0820   -1.6690   75.7450 C   0  0  0  0  0  2  0  0  0  0  0  0
   13.3370   -2.4330   77.0560 C   0  0  2  0  0  3  0  0  0  0  0  0
   13.9890   -2.6060   75.9390 N   0  0  0  0  0  0  0  0  0  0  0  0
   11.9850   -3.4640   77.2660 S   0  0  0  0  0  0  0  0  0  0  0  0
   12.4000   -4.2870   75.7880 C   0  0  0  0  0  3  0  0  0  0  0  0
   16.0950   -0.6450   77.8040 C   0  0  0  0  0  1  0  0  0  0  0  0
   14.3990    0.6380   76.4430 C   0  0  0  0  0  1  0  0  0  0  0  0
   14.1150   -1.6210   78.6460 H   0  0  0  0  0  0  0  0  0  0  0  0
   14.4440   -6.7770   74.4370 C   0  0  0  0  0  3  0  0  0  0  0  0
   13.3270   -6.9120   73.7140 N   0  0  0  0  0  0  0  0  0  0  0  0
   12.8450   -7.7140   74.1440 H   0  0  0  0  0  0  0  0  0  0  0  0
   13.1580   -7.1210   72.2840 C   0  0  0  0  0  3  0  0  0  0  0  0
   12.0950   -6.2500   71.6310 C   0  0  0  0  0  2  0  0  0  0  0  0
   13.0830   -8.5510   71.7730 C   0  0  0  0  0  2  0  0  0  0  0  0
   12.3520   -6.1840   70.1270 C   0  0  0  0  0  2  0  0  0  0  0  0
   13.3070   -8.5590   70.2580 C   0  0  0  0  0  2  0  0  0  0  0  0
   12.4200   -7.5710   69.4850 C   0  0  0  0  0  2  0  0  0  0  0  0
   14.8650   -7.6990   75.3130 N   0  0  0  0  0  0  0  0  0  0  0  0
   14.1350   -8.4260   75.3050 H   0  0  0  0  0  0  0  0  0  0  0  0
   15.1780   -7.4950   76.7280 C   0  0  0  0  0  3  0  0  0  0  0  0
   16.5590   -6.9420   77.0720 C   0  0  0  0  0  2  0  0  0  0  0  0
   14.0940   -6.7280   77.4770 C   0  0  0  0  0  2  0  0  0  0  0  0
   16.8080   -7.0180   78.5780 C   0  0  0  0  0  2  0  0  0  0  0  0
   14.3110   -6.8170   78.9870 C   0  0  0  0  0  2  0  0  0  0  0  0
   15.7030   -6.3380   79.3890 C   0  0  0  0  0  2  0  0  0  0  0  0
  1 14  1  0  0  0  0
  2  1  1  0  0  0  0
  2  3  1  0  0  0  0
  3 10  2  0  0  0  0
  3  8  1  0  0  0  0
  4  5  1  0  0  0  0
  4 11  1  0  0  0  0
  5 13  1  0  0  0  0
  6  8  1  0  0  0  0
  6  4  1  0  0  0  0
  7  9  1  6  0  0  0
  7  5  1  0  0  0  0
  8  7  1  0  0  0  0
 10  9  1  0  0  0  0
 12  4  1  0  0  0  0
 14 23  1  0  0  0  0
 15 16  1  0  0  0  0
 15 14  1  0  0  0  0
 17 15  1  0  0  0  0
 18 17  1  0  0  0  0
 19 17  1  0  0  0  0
 20 18  1  0  0  0  0
 21 19  1  0  0  0  0
 22 20  1  0  0  0  0
 22 21  1  0  0  0  0
 23 25  1  0  0  0  0
 24 23  1  0  0  0  0
 25 26  1  0  0  0  0
 25 27  1  0  0  0  0
 26 28  1  0  0  0  0
 27 29  1  0  0  0  0
 28 30  1  0  0  0  0
 29 30  1  0  0  0  0
M  END
>  <MODEL>
15

>  <REMARK>
 VINA RESULT:    -5.207      1.658      2.589
 INTER + INTRA:          -8.089
 INTER:                  -7.396
 INTRA:                  -0.693
 UNBOUND:                -0.751
 SMILES CC1(C)CN2[C@H](CSC(NC3CCCCC3)NC3CCCCC3)CS[C@@H]2N1
 SMILES IDX 8 1 7 2 6 3 2 4 27 5 4 6 26 7 5 8 25 9 24 10 1 11 3 12 9 14
 SMILES IDX 10 15 11 17 12 18 16 19 13 20 15 21 14 22 17 23 18 25 19 26
 SMILES IDX 23 27 20 28 22 29 21 30
 H PARENT 27 13 10 16 17 24

>  <TORSDO>
F 7

$$$$
D:\Codex\projectless-workspaces\2026-08-22\non\work\whynot17\analysis\dinp_crc_structural_pipeline\outputs\stage2_refine_and_rescue\cxcr4_refinement\it1t_s0.70_e32_seed3001.pdbqt
 OpenBabel09032623223D

 30 33  0  0  1  0  0  0  0  0999 V2000
   13.9710   -6.1350   75.1360 S   0  0  0  0  0  0  0  0  0  0  0  0
   14.7470   -6.9360   73.7670 C   0  0  0  0  0  2  0  0  0  0  0  0
   13.7290   -7.8450   73.1210 C   0  0  0  0  0  0  0  0  0  0  0  0
   13.2310   -7.6710   69.5200 C   0  0  0  0  0  0  0  0  0  0  0  0
   12.3300   -8.6570   70.1150 N   0  0  0  0  0  0  0  0  0  0  0  0
   13.9480   -6.9940   70.6980 C   0  0  0  0  0  2  0  0  0  0  0  0
   12.5270   -8.6590   71.4400 C   0  0  2  0  0  3  0  0  0  0  0  0
   13.4520   -7.8090   71.7930 N   0  0  0  0  0  0  0  0  0  0  0  0
   11.9910   -9.6980   72.6930 S   0  0  0  0  0  0  0  0  0  0  0  0
   13.0010   -8.8370   73.8210 C   0  0  0  0  0  3  0  0  0  0  0  0
   12.4170   -6.6510   68.7360 C   0  0  0  0  0  1  0  0  0  0  0  0
   14.2530   -8.3800   68.6340 C   0  0  0  0  0  1  0  0  0  0  0  0
   11.3530   -8.4050   69.9080 H   0  0  0  0  0  0  0  0  0  0  0  0
   15.1650   -5.4600   76.0930 C   0  0  0  0  0  3  0  0  0  0  0  0
   15.6890   -4.3130   75.6490 N   0  0  0  0  0  0  0  0  0  0  0  0
   16.6660   -4.3410   75.9720 H   0  0  0  0  0  0  0  0  0  0  0  0
   15.2740   -2.9390   75.8940 C   0  0  0  0  0  3  0  0  0  0  0  0
   14.9720   -2.1290   74.6420 C   0  0  0  0  0  2  0  0  0  0  0  0
   16.0690   -2.1190   76.8970 C   0  0  0  0  0  2  0  0  0  0  0  0
   14.0950   -0.9350   75.0140 C   0  0  0  0  0  2  0  0  0  0  0  0
   15.2570   -0.8840   77.2980 C   0  0  0  0  0  2  0  0  0  0  0  0
   14.7200   -0.0710   76.1100 C   0  0  0  0  0  2  0  0  0  0  0  0
   15.5680   -6.0620   77.2200 N   0  0  0  0  0  0  0  0  0  0  0  0
   15.2190   -5.4610   77.9810 H   0  0  0  0  0  0  0  0  0  0  0  0
   16.9420   -6.3920   77.6030 C   0  0  0  0  0  3  0  0  0  0  0  0
   17.1490   -7.1090   78.9340 C   0  0  0  0  0  2  0  0  0  0  0  0
   17.7220   -7.0880   76.4930 C   0  0  0  0  0  2  0  0  0  0  0  0
   18.6340   -7.1610   79.2910 C   0  0  0  0  0  2  0  0  0  0  0  0
   19.2140   -7.1230   76.8210 C   0  0  0  0  0  2  0  0  0  0  0  0
   19.4830   -7.7730   78.1750 C   0  0  0  0  0  2  0  0  0  0  0  0
  1 14  1  0  0  0  0
  2  1  1  0  0  0  0
  3  2  1  0  0  0  0
  3 10  2  0  0  0  0
  4  5  1  0  0  0  0
  4  6  1  0  0  0  0
  5  7  1  0  0  0  0
  6  8  1  0  0  0  0
  7  8  1  0  0  0  0
  7  9  1  6  0  0  0
  8  3  1  0  0  0  0
  9 10  1  0  0  0  0
 11  4  1  0  0  0  0
 12  4  1  0  0  0  0
 13  5  1  0  0  0  0
 14 23  1  0  0  0  0
 15 17  1  0  0  0  0
 15 16  1  0  0  0  0
 15 14  1  0  0  0  0
 17 19  1  0  0  0  0
 18 20  1  0  0  0  0
 18 17  1  0  0  0  0
 19 21  1  0  0  0  0
 20 22  1  0  0  0  0
 22 21  1  0  0  0  0
 23 25  1  0  0  0  0
 23 24  1  0  0  0  0
 25 26  1  0  0  0  0
 26 28  1  0  0  0  0
 27 29  1  0  0  0  0
 27 25  1  0  0  0  0
 29 30  1  0  0  0  0
 30 28  1  0  0  0  0
M  END
>  <MODEL>
16

>  <REMARK>
 VINA RESULT:    -5.168      2.210      6.606
 INTER + INTRA:          -8.034
 INTER:                  -7.338
 INTRA:                  -0.696
 UNBOUND:                -0.751
 SMILES CC1(C)CN2[C@H](CSC(NC3CCCCC3)NC3CCCCC3)CS[C@@H]2N1
 SMILES IDX 8 1 7 2 6 3 2 4 27 5 4 6 26 7 5 8 25 9 24 10 1 11 3 12 9 14
 SMILES IDX 10 15 11 17 12 18 16 19 13 20 15 21 14 22 17 23 18 25 19 26
 SMILES IDX 23 27 20 28 22 29 21 30
 H PARENT 27 13 10 16 17 24

>  <TORSDO>
F 7

$$$$
D:\Codex\projectless-workspaces\2026-08-22\non\work\whynot17\analysis\dinp_crc_structural_pipeline\outputs\stage2_refine_and_rescue\cxcr4_refinement\it1t_s0.70_e32_seed3001.pdbqt
 OpenBabel09032623223D

 30 33  0  0  1  0  0  0  0  0999 V2000
   14.9450   -5.2880   73.8550 S   0  0  0  0  0  0  0  0  0  0  0  0
   14.6960   -6.9310   74.4520 C   0  0  0  0  0  2  0  0  0  0  0  0
   13.9010   -6.8460   75.7330 C   0  0  0  0  0  0  0  0  0  0  0  0
   15.5280   -5.6310   78.7530 C   0  0  0  0  0  0  0  0  0  0  0  0
   14.1390   -5.9940   79.0300 N   0  0  0  0  0  0  0  0  0  0  0  0
   15.7870   -6.0440   77.2950 C   0  0  0  0  0  2  0  0  0  0  0  0
   13.5950   -6.4650   77.8990 C   0  0  2  0  0  3  0  0  0  0  0  0
   14.4460   -6.4480   76.9100 N   0  0  0  0  0  0  0  0  0  0  0  0
   11.9850   -6.8470   77.4560 S   0  0  0  0  0  0  0  0  0  0  0  0
   12.5170   -7.1340   75.8220 C   0  0  0  0  0  3  0  0  0  0  0  0
   16.4480   -6.3970   79.6930 C   0  0  0  0  0  1  0  0  0  0  0  0
   15.7020   -4.1210   78.8980 C   0  0  0  0  0  1  0  0  0  0  0  0
   14.1080   -6.7190   79.7600 H   0  0  0  0  0  0  0  0  0  0  0  0
   13.4730   -4.6910   73.3350 C   0  0  0  0  0  3  0  0  0  0  0  0
   12.6270   -5.5900   72.8230 N   0  0  0  0  0  0  0  0  0  0  0  0
   12.4300   -6.2260   73.6080 H   0  0  0  0  0  0  0  0  0  0  0  0
   12.7840   -6.4760   71.6780 C   0  0  0  0  0  3  0  0  0  0  0  0
   12.3740   -5.8740   70.3420 C   0  0  0  0  0  2  0  0  0  0  0  0
   12.2890   -7.9070   71.8070 C   0  0  0  0  0  2  0  0  0  0  0  0
   13.0330   -6.6610   69.2110 C   0  0  0  0  0  2  0  0  0  0  0  0
   12.8930   -8.7550   70.6840 C   0  0  0  0  0  2  0  0  0  0  0  0
   12.7170   -8.1560   69.2800 C   0  0  0  0  0  2  0  0  0  0  0  0
   13.1910   -3.3840   73.4190 N   0  0  0  0  0  0  0  0  0  0  0  0
   13.8660   -2.9250   72.7910 H   0  0  0  0  0  0  0  0  0  0  0  0
   13.1810   -2.5580   74.6280 C   0  0  0  0  0  3  0  0  0  0  0  0
   12.8510   -3.2490   75.9490 C   0  0  0  0  0  2  0  0  0  0  0  0
   14.4280   -1.6940   74.7730 C   0  0  0  0  0  2  0  0  0  0  0  0
   12.6480   -2.2170   77.0580 C   0  0  0  0  0  2  0  0  0  0  0  0
   14.2310   -0.6370   75.8600 C   0  0  0  0  0  2  0  0  0  0  0  0
   13.8350   -1.2610   77.1940 C   0  0  0  0  0  2  0  0  0  0  0  0
  1  2  1  0  0  0  0
  2  3  1  0  0  0  0
  3 10  2  0  0  0  0
  3  8  1  0  0  0  0
  4 12  1  0  0  0  0
  4  5  1  0  0  0  0
  4 11  1  0  0  0  0
  5 13  1  0  0  0  0
  6  4  1  0  0  0  0
  7  9  1  6  0  0  0
  7  5  1  0  0  0  0
  8  6  1  0  0  0  0
  8  7  1  0  0  0  0
 10  9  1  0  0  0  0
 14 23  1  0  0  0  0
 14  1  1  0  0  0  0
 15 14  1  0  0  0  0
 15 16  1  0  0  0  0
 17 19  1  0  0  0  0
 17 15  1  0  0  0  0
 18 17  1  0  0  0  0
 20 22  1  0  0  0  0
 20 18  1  0  0  0  0
 21 19  1  0  0  0  0
 22 21  1  0  0  0  0
 23 25  1  0  0  0  0
 24 23  1  0  0  0  0
 25 27  1  0  0  0  0
 25 26  1  0  0  0  0
 26 28  1  0  0  0  0
 27 29  1  0  0  0  0
 28 30  1  0  0  0  0
 29 30  1  0  0  0  0
M  END
>  <MODEL>
17

>  <REMARK>
 VINA RESULT:    -5.154      2.201      5.279
 INTER + INTRA:          -8.015
 INTER:                  -7.027
 INTRA:                  -0.988
 UNBOUND:                -0.751
 SMILES CC1(C)CN2[C@H](CSC(NC3CCCCC3)NC3CCCCC3)CS[C@@H]2N1
 SMILES IDX 8 1 7 2 6 3 2 4 27 5 4 6 26 7 5 8 25 9 24 10 1 11 3 12 9 14
 SMILES IDX 10 15 11 17 12 18 16 19 13 20 15 21 14 22 17 23 18 25 19 26
 SMILES IDX 23 27 20 28 22 29 21 30
 H PARENT 27 13 10 16 17 24

>  <TORSDO>
F 7

$$$$
D:\Codex\projectless-workspaces\2026-08-22\non\work\whynot17\analysis\dinp_crc_structural_pipeline\outputs\stage2_refine_and_rescue\cxcr4_refinement\it1t_s0.70_e32_seed3001.pdbqt
 OpenBabel09032623223D

 30 33  0  0  1  0  0  0  0  0999 V2000
   15.6460   -6.0870   74.7200 S   0  0  0  0  0  0  0  0  0  0  0  0
   15.6280   -6.5350   73.0120 C   0  0  0  0  0  2  0  0  0  0  0  0
   14.3850   -7.3510   72.7570 C   0  0  0  0  0  0  0  0  0  0  0  0
   13.1710   -7.7160   69.3450 C   0  0  0  0  0  0  0  0  0  0  0  0
   12.2900   -8.4140   70.2800 N   0  0  0  0  0  0  0  0  0  0  0  0
   14.2040   -6.9800   70.2130 C   0  0  0  0  0  2  0  0  0  0  0  0
   12.7580   -8.2230   71.5200 C   0  0  2  0  0  3  0  0  0  0  0  0
   13.8430   -7.4970   71.5210 N   0  0  0  0  0  0  0  0  0  0  0  0
   12.3620   -8.9230   73.0330 S   0  0  0  0  0  0  0  0  0  0  0  0
   13.6920   -8.0680   73.7630 C   0  0  0  0  0  3  0  0  0  0  0  0
   12.3560   -6.7200   68.5310 C   0  0  0  0  0  1  0  0  0  0  0  0
   13.8800   -8.7310   68.4520 C   0  0  0  0  0  1  0  0  0  0  0  0
   11.3340   -8.0370   70.2060 H   0  0  0  0  0  0  0  0  0  0  0  0
   14.7710   -4.6750   74.9000 C   0  0  0  0  0  3  0  0  0  0  0  0
   13.5450   -4.8100   75.4180 N   0  0  0  0  0  0  0  0  0  0  0  0
   13.0360   -3.9820   75.0790 H   0  0  0  0  0  0  0  0  0  0  0  0
   13.1260   -4.9410   76.8060 C   0  0  0  0  0  3  0  0  0  0  0  0
   12.8970   -6.3720   77.2720 C   0  0  0  0  0  2  0  0  0  0  0  0
   12.0290   -4.0190   77.3130 C   0  0  0  0  0  2  0  0  0  0  0  0
   12.9630   -6.4210   78.7970 C   0  0  0  0  0  2  0  0  0  0  0  0
   12.0200   -4.0370   78.8440 C   0  0  0  0  0  2  0  0  0  0  0  0
   11.9850   -5.4460   79.4560 C   0  0  0  0  0  2  0  0  0  0  0  0
   15.2800   -3.4940   74.5240 N   0  0  0  0  0  0  0  0  0  0  0  0
   16.2490   -3.7010   74.2400 H   0  0  0  0  0  0  0  0  0  0  0  0
   15.3780   -2.2760   75.3310 C   0  0  0  0  0  3  0  0  0  0  0  0
   14.2150   -1.2890   75.2590 C   0  0  0  0  0  2  0  0  0  0  0  0
   15.7600   -2.5480   76.7820 C   0  0  0  0  0  2  0  0  0  0  0  0
   14.5790    0.0200   75.9600 C   0  0  0  0  0  2  0  0  0  0  0  0
   16.1540   -1.2520   77.4890 C   0  0  0  0  0  2  0  0  0  0  0  0
   15.0560   -0.1980   77.3970 C   0  0  0  0  0  2  0  0  0  0  0  0
  1 14  1  0  0  0  0
  2  1  1  0  0  0  0
  3  2  1  0  0  0  0
  3 10  2  0  0  0  0
  4  6  1  0  0  0  0
  4  5  1  0  0  0  0
  5  7  1  0  0  0  0
  6  8  1  0  0  0  0
  7  8  1  0  0  0  0
  7  9  1  6  0  0  0
  8  3  1  0  0  0  0
  9 10  1  0  0  0  0
 11  4  1  0  0  0  0
 12  4  1  0  0  0  0
 13  5  1  0  0  0  0
 14 15  1  0  0  0  0
 15 17  1  0  0  0  0
 16 15  1  0  0  0  0
 17 18  1  0  0  0  0
 17 19  1  0  0  0  0
 18 20  1  0  0  0  0
 19 21  1  0  0  0  0
 20 22  1  0  0  0  0
 21 22  1  0  0  0  0
 23 14  1  0  0  0  0
 23 25  1  0  0  0  0
 24 23  1  0  0  0  0
 25 27  1  0  0  0  0
 26 25  1  0  0  0  0
 26 28  1  0  0  0  0
 27 29  1  0  0  0  0
 28 30  1  0  0  0  0
 30 29  1  0  0  0  0
M  END
>  <MODEL>
18

>  <REMARK>
 VINA RESULT:    -5.108      3.050      7.309
 INTER + INTRA:          -7.950
 INTER:                  -6.897
 INTRA:                  -1.053
 UNBOUND:                -0.751
 SMILES CC1(C)CN2[C@H](CSC(NC3CCCCC3)NC3CCCCC3)CS[C@@H]2N1
 SMILES IDX 8 1 7 2 6 3 2 4 27 5 4 6 26 7 5 8 25 9 24 10 1 11 3 12 9 14
 SMILES IDX 10 15 11 17 12 18 16 19 13 20 15 21 14 22 17 23 18 25 19 26
 SMILES IDX 23 27 20 28 22 29 21 30
 H PARENT 27 13 10 16 17 24

>  <TORSDO>
F 7

$$$$
D:\Codex\projectless-workspaces\2026-08-22\non\work\whynot17\analysis\dinp_crc_structural_pipeline\outputs\stage2_refine_and_rescue\cxcr4_refinement\it1t_s0.70_e32_seed3001.pdbqt
 OpenBabel09032623223D

 30 33  0  0  1  0  0  0  0  0999 V2000
   14.8230   -5.7310   73.8130 S   0  0  0  0  0  0  0  0  0  0  0  0
   14.5940   -7.2920   74.6050 C   0  0  0  0  0  2  0  0  0  0  0  0
   13.8420   -7.0560   75.8930 C   0  0  0  0  0  0  0  0  0  0  0  0
   15.5560   -5.4630   78.6800 C   0  0  0  0  0  0  0  0  0  0  0  0
   14.1810   -5.8000   79.0490 N   0  0  0  0  0  0  0  0  0  0  0  0
   15.7690   -6.0520   77.2770 C   0  0  0  0  0  2  0  0  0  0  0  0
   13.6050   -6.4120   78.0050 C   0  0  2  0  0  3  0  0  0  0  0  0
   14.4210   -6.5100   76.9920 N   0  0  0  0  0  0  0  0  0  0  0  0
   11.9850   -6.8580   77.6690 S   0  0  0  0  0  0  0  0  0  0  0  0
   12.4660   -7.3410   76.0650 C   0  0  0  0  0  3  0  0  0  0  0  0
   16.5160   -6.1010   79.6750 C   0  0  0  0  0  1  0  0  0  0  0  0
   15.7160   -3.9460   78.6320 C   0  0  0  0  0  1  0  0  0  0  0  0
   14.1830   -6.4300   79.8640 H   0  0  0  0  0  0  0  0  0  0  0  0
   13.3270   -5.1680   73.3220 C   0  0  0  0  0  3  0  0  0  0  0  0
   13.1700   -3.8400   73.3340 N   0  0  0  0  0  0  0  0  0  0  0  0
   13.8630   -3.4990   72.6550 H   0  0  0  0  0  0  0  0  0  0  0  0
   13.2620   -2.8990   74.4400 C   0  0  0  0  0  3  0  0  0  0  0  0
   14.4900   -2.0000   74.4140 C   0  0  0  0  0  2  0  0  0  0  0  0
   12.9930   -3.4140   75.8450 C   0  0  0  0  0  2  0  0  0  0  0  0
   14.2320   -0.7700   75.2820 C   0  0  0  0  0  2  0  0  0  0  0  0
   12.7490   -2.2270   76.7810 C   0  0  0  0  0  2  0  0  0  0  0  0
   13.8300   -1.1380   76.7120 C   0  0  0  0  0  2  0  0  0  0  0  0
   12.3550   -6.0170   72.9600 N   0  0  0  0  0  0  0  0  0  0  0  0
   12.3660   -6.7540   73.6800 H   0  0  0  0  0  0  0  0  0  0  0  0
   12.2360   -6.7340   71.6900 C   0  0  0  0  0  3  0  0  0  0  0  0
   12.9050   -6.1130   70.4660 C   0  0  0  0  0  2  0  0  0  0  0  0
   12.5890   -8.2130   71.8000 C   0  0  0  0  0  2  0  0  0  0  0  0
   12.4860   -6.8480   69.1940 C   0  0  0  0  0  2  0  0  0  0  0  0
   12.1500   -8.9690   70.5470 C   0  0  0  0  0  2  0  0  0  0  0  0
   12.7360   -8.3560   69.2790 C   0  0  0  0  0  2  0  0  0  0  0  0
  1  2  1  0  0  0  0
  2  3  1  0  0  0  0
  3 10  2  0  0  0  0
  3  8  1  0  0  0  0
  4  5  1  0  0  0  0
  4 11  1  0  0  0  0
  5 13  1  0  0  0  0
  6  4  1  0  0  0  0
  7  9  1  6  0  0  0
  7  5  1  0  0  0  0
  8  6  1  0  0  0  0
  8  7  1  0  0  0  0
 10  9  1  0  0  0  0
 12  4  1  0  0  0  0
 14 15  1  0  0  0  0
 14  1  1  0  0  0  0
 15 17  1  0  0  0  0
 16 15  1  0  0  0  0
 17 19  1  0  0  0  0
 18 17  1  0  0  0  0
 18 20  1  0  0  0  0
 19 21  1  0  0  0  0
 20 22  1  0  0  0  0
 22 21  1  0  0  0  0
 23 14  1  0  0  0  0
 23 24  1  0  0  0  0
 25 27  1  0  0  0  0
 25 23  1  0  0  0  0
 26 25  1  0  0  0  0
 28 30  1  0  0  0  0
 28 26  1  0  0  0  0
 29 27  1  0  0  0  0
 30 29  1  0  0  0  0
M  END
>  <MODEL>
19

>  <REMARK>
 VINA RESULT:    -5.047      2.294      6.749
 INTER + INTRA:          -7.864
 INTER:                  -6.721
 INTRA:                  -1.143
 UNBOUND:                -0.751
 SMILES CC1(C)CN2[C@H](CSC(NC3CCCCC3)NC3CCCCC3)CS[C@@H]2N1
 SMILES IDX 8 1 7 2 6 3 2 4 27 5 4 6 26 7 5 8 25 9 24 10 1 11 3 12 9 14
 SMILES IDX 10 15 11 17 12 18 16 19 13 20 15 21 14 22 17 23 18 25 19 26
 SMILES IDX 23 27 20 28 22 29 21 30
 H PARENT 27 13 10 16 17 24

>  <TORSDO>
F 7

$$$$
D:\Codex\projectless-workspaces\2026-08-22\non\work\whynot17\analysis\dinp_crc_structural_pipeline\outputs\stage2_refine_and_rescue\cxcr4_refinement\it1t_s0.70_e32_seed3001.pdbqt
 OpenBabel09032623223D

 30 33  0  0  1  0  0  0  0  0999 V2000
   12.9840   -5.8920   77.7750 S   0  0  0  0  0  0  0  0  0  0  0  0
   13.3600   -6.9340   76.4000 C   0  0  0  0  0  2  0  0  0  0  0  0
   13.0940   -6.1520   75.1370 C   0  0  0  0  0  0  0  0  0  0  0  0
   13.6560   -7.7480   71.9140 C   0  0  0  0  0  0  0  0  0  0  0  0
   13.2090   -6.3670   71.7310 N   0  0  0  0  0  0  0  0  0  0  0  0
   13.8420   -7.9310   73.4280 C   0  0  0  0  0  2  0  0  0  0  0  0
   13.0490   -5.8150   72.9410 C   0  0  2  0  0  3  0  0  0  0  0  0
   13.3220   -6.6590   73.8980 N   0  0  0  0  0  0  0  0  0  0  0  0
   12.3460   -4.3420   73.4630 S   0  0  0  0  0  0  0  0  0  0  0  0
   12.5520   -4.8450   75.1180 C   0  0  0  0  0  3  0  0  0  0  0  0
   14.9790   -7.9500   71.1880 C   0  0  0  0  0  1  0  0  0  0  0  0
   12.5810   -8.7060   71.4070 C   0  0  0  0  0  1  0  0  0  0  0  0
   13.9150   -5.8400   71.1980 H   0  0  0  0  0  0  0  0  0  0  0  0
   14.4200   -5.4620   78.5150 C   0  0  0  0  0  3  0  0  0  0  0  0
   15.2270   -6.4720   78.8540 N   0  0  0  0  0  0  0  0  0  0  0  0
   15.1660   -6.5090   79.8800 H   0  0  0  0  0  0  0  0  0  0  0  0
   16.6420   -6.6720   78.5750 C   0  0  0  0  0  3  0  0  0  0  0  0
   16.9420   -7.3770   77.2600 C   0  0  0  0  0  2  0  0  0  0  0  0
   17.5240   -7.2030   79.6930 C   0  0  0  0  0  2  0  0  0  0  0  0
   18.3830   -7.0840   76.8490 C   0  0  0  0  0  2  0  0  0  0  0  0
   18.9940   -6.9650   79.3360 C   0  0  0  0  0  2  0  0  0  0  0  0
   19.3900   -7.4620   77.9370 C   0  0  0  0  0  2  0  0  0  0  0  0
   14.7120   -4.1770   78.7590 N   0  0  0  0  0  0  0  0  0  0  0  0
   13.9790   -3.8570   79.4080 H   0  0  0  0  0  0  0  0  0  0  0  0
   14.8420   -3.0990   77.7780 C   0  0  0  0  0  3  0  0  0  0  0  0
   15.3660   -3.4670   76.3920 C   0  0  0  0  0  2  0  0  0  0  0  0
   13.5890   -2.2370   77.6640 C   0  0  0  0  0  2  0  0  0  0  0  0
   15.6670   -2.2080   75.5800 C   0  0  0  0  0  2  0  0  0  0  0  0
   13.8800   -0.9590   76.8780 C   0  0  0  0  0  2  0  0  0  0  0  0
   14.4690   -1.2600   75.5030 C   0  0  0  0  0  2  0  0  0  0  0  0
  1 14  1  0  0  0  0
  2  1  1  0  0  0  0
  3  2  1  0  0  0  0
  4  6  1  0  0  0  0
  5  4  1  0  0  0  0
  5  7  1  0  0  0  0
  6  8  1  0  0  0  0
  7  9  1  1  0  0  0
  7  8  1  0  0  0  0
  8  3  1  0  0  0  0
  9 10  1  0  0  0  0
 10  3  2  0  0  0  0
 11  4  1  0  0  0  0
 12  4  1  0  0  0  0
 13  5  1  0  0  0  0
 14 23  1  0  0  0  0
 14 15  1  0  0  0  0
 15 16  1  0  0  0  0
 17 15  1  0  0  0  0
 17 19  1  0  0  0  0
 18 17  1  0  0  0  0
 20 18  1  0  0  0  0
 20 22  1  0  0  0  0
 21 19  1  0  0  0  0
 22 21  1  0  0  0  0
 23 24  1  0  0  0  0
 25 23  1  0  0  0  0
 26 25  1  0  0  0  0
 27 25  1  0  0  0  0
 28 26  1  0  0  0  0
 29 27  1  0  0  0  0
 30 28  1  0  0  0  0
 30 29  1  0  0  0  0
M  END
>  <MODEL>
20

>  <REMARK>
 VINA RESULT:    -3.552      1.930      6.640
 INTER + INTRA:          -5.756
 INTER:                  -4.628
 INTRA:                  -1.129
 UNBOUND:                -0.751
 SMILES CC1(C)CN2[C@H](CSC(NC3CCCCC3)NC3CCCCC3)CS[C@@H]2N1
 SMILES IDX 8 1 7 2 6 3 2 4 27 5 4 6 26 7 5 8 25 9 24 10 1 11 3 12 9 14
 SMILES IDX 10 15 11 17 12 18 16 19 13 20 15 21 14 22 17 23 18 25 19 26
 SMILES IDX 23 27 20 28 22 29 21 30
 H PARENT 27 13 10 16 17 24

>  <TORSDO>
F 7

$$$$
