D:\Codex\projectless-workspaces\2026-08-22\non\work\whynot17\analysis\dinp_crc_structural_pipeline\outputs\stage2_refine_and_rescue\cxcr4_refinement\it1t_s0.70_e64_seed590836.pdbqt
 OpenBabel09032623223D

 30 33  0  0  1  0  0  0  0  0999 V2000
   13.5390   -5.4440   77.5390 S   0  0  0  0  0  0  0  0  0  0  0  0
   12.6050   -6.5800   76.5610 C   0  0  0  0  0  2  0  0  0  0  0  0
   12.5780   -6.0630   75.1440 C   0  0  0  0  0  0  0  0  0  0  0  0
   13.6120   -8.2600   72.4330 C   0  0  0  0  0  0  0  0  0  0  0  0
   13.2460   -6.9430   71.9140 N   0  0  0  0  0  0  0  0  0  0  0  0
   13.5390   -8.1420   73.9630 C   0  0  0  0  0  2  0  0  0  0  0  0
   12.9060   -6.1630   72.9490 C   0  0  2  0  0  3  0  0  0  0  0  0
   12.9900   -6.8030   74.0840 N   0  0  0  0  0  0  0  0  0  0  0  0
   12.1750   -4.6170   73.0490 S   0  0  0  0  0  0  0  0  0  0  0  0
   12.0880   -4.7850   74.7810 C   0  0  0  0  0  3  0  0  0  0  0  0
   15.0290   -8.6000   71.9930 C   0  0  0  0  0  1  0  0  0  0  0  0
   12.6050   -9.3010   71.9490 C   0  0  0  0  0  1  0  0  0  0  0  0
   14.0460   -6.5300   71.4150 H   0  0  0  0  0  0  0  0  0  0  0  0
   15.1220   -5.4690   77.0010 C   0  0  0  0  0  3  0  0  0  0  0  0
   15.7260   -6.6610   77.0190 N   0  0  0  0  0  0  0  0  0  0  0  0
   15.0450   -7.2810   77.4790 H   0  0  0  0  0  0  0  0  0  0  0  0
   17.0050   -7.0530   77.5920 C   0  0  0  0  0  3  0  0  0  0  0  0
   17.2130   -6.6340   79.0400 C   0  0  0  0  0  2  0  0  0  0  0  0
   18.2620   -6.8160   76.7700 C   0  0  0  0  0  2  0  0  0  0  0  0
   18.3060   -7.4990   79.6640 C   0  0  0  0  0  2  0  0  0  0  0  0
   19.4130   -7.6380   77.3560 C   0  0  0  0  0  2  0  0  0  0  0  0
   19.6120   -7.4530   78.8680 C   0  0  0  0  0  2  0  0  0  0  0  0
   15.7320   -4.3450   76.6000 N   0  0  0  0  0  0  0  0  0  0  0  0
   16.4660   -4.1760   77.3030 H   0  0  0  0  0  0  0  0  0  0  0  0
   15.1150   -3.0360   76.3790 C   0  0  0  0  0  3  0  0  0  0  0  0
   15.5760   -1.8820   77.2660 C   0  0  0  0  0  2  0  0  0  0  0  0
   15.1110   -2.6150   74.9140 C   0  0  0  0  0  2  0  0  0  0  0  0
   14.6740   -0.6630   77.0740 C   0  0  0  0  0  2  0  0  0  0  0  0
   14.1900   -1.4140   74.6980 C   0  0  0  0  0  2  0  0  0  0  0  0
   14.5590   -0.2450   75.6060 C   0  0  0  0  0  2  0  0  0  0  0  0
  2  1  1  0  0  0  0
  3  2  1  0  0  0  0
  4  6  1  0  0  0  0
  5  4  1  0  0  0  0
  5  7  1  0  0  0  0
  6  8  1  0  0  0  0
  7  9  1  6  0  0  0
  7  8  1  0  0  0  0
  8  3  1  0  0  0  0
  9 10  1  0  0  0  0
 10  3  2  0  0  0  0
 11  4  1  0  0  0  0
 12  4  1  0  0  0  0
 13  5  1  0  0  0  0
 14 15  1  0  0  0  0
 14  1  1  0  0  0  0
 15 16  1  0  0  0  0
 15 17  1  0  0  0  0
 17 18  1  0  0  0  0
 18 20  1  0  0  0  0
 19 21  1  0  0  0  0
 19 17  1  0  0  0  0
 21 22  1  0  0  0  0
 22 20  1  0  0  0  0
 23 14  1  0  0  0  0
 23 24  1  0  0  0  0
 25 23  1  0  0  0  0
 25 26  1  0  0  0  0
 27 25  1  0  0  0  0
 28 26  1  0  0  0  0
 29 27  1  0  0  0  0
 29 30  1  0  0  0  0
 30 28  1  0  0  0  0
M  END
>  <MODEL>
1

>  <REMARK>
 VINA RESULT:    -5.807      0.000      0.000
 INTER + INTRA:          -9.418
 INTER:                  -8.183
 INTRA:                  -1.235
 UNBOUND:                -1.235
 SMILES CC1(C)CN2[C@H](CSC(NC3CCCCC3)NC3CCCCC3)CS[C@@H]2N1
 SMILES IDX 8 1 7 2 6 3 2 4 27 5 4 6 26 7 5 8 25 9 24 10 1 11 3 12 9 14
 SMILES IDX 10 15 11 17 12 18 16 19 13 20 15 21 14 22 17 23 18 25 19 26
 SMILES IDX 23 27 20 28 22 29 21 30
 H PARENT 27 13 10 16 17 24

>  <TORSDO>
F 7

$$$$
D:\Codex\projectless-workspaces\2026-08-22\non\work\whynot17\analysis\dinp_crc_structural_pipeline\outputs\stage2_refine_and_rescue\cxcr4_refinement\it1t_s0.70_e64_seed590836.pdbqt
 OpenBabel09032623223D

 30 33  0  0  1  0  0  0  0  0999 V2000
   12.0980   -5.7970   74.6310 S   0  0  0  0  0  0  0  0  0  0  0  0
   12.3810   -4.5090   75.8040 C   0  0  0  0  0  2  0  0  0  0  0  0
   13.0990   -3.3850   75.0980 C   0  0  0  0  0  0  0  0  0  0  0  0
   14.6740   -0.7670   77.0770 C   0  0  0  0  0  0  0  0  0  0  0  0
   14.8450   -0.5030   75.6490 N   0  0  0  0  0  0  0  0  0  0  0  0
   13.7620   -2.0010   77.1680 C   0  0  0  0  0  2  0  0  0  0  0  0
   14.2220   -1.4730   74.9650 C   0  0  2  0  0  3  0  0  0  0  0  0
   13.6720   -2.3480   75.7610 N   0  0  0  0  0  0  0  0  0  0  0  0
   14.2130   -1.9040   73.3070 S   0  0  0  0  0  0  0  0  0  0  0  0
   13.2780   -3.3220   73.6950 C   0  0  0  0  0  3  0  0  0  0  0  0
   14.0110    0.4340   77.7360 C   0  0  0  0  0  1  0  0  0  0  0  0
   16.0290   -1.0810   77.7060 C   0  0  0  0  0  1  0  0  0  0  0  0
   14.4330    0.4100   75.4120 H   0  0  0  0  0  0  0  0  0  0  0  0
   12.6880   -7.2260   75.2680 C   0  0  0  0  0  3  0  0  0  0  0  0
   13.0420   -8.1590   74.3800 N   0  0  0  0  0  0  0  0  0  0  0  0
   13.9870   -8.4410   74.6740 H   0  0  0  0  0  0  0  0  0  0  0  0
   13.1310   -8.0830   72.9290 C   0  0  0  0  0  3  0  0  0  0  0  0
   12.1500   -8.9740   72.1800 C   0  0  0  0  0  2  0  0  0  0  0  0
   14.5100   -8.1330   72.2910 C   0  0  0  0  0  2  0  0  0  0  0  0
   11.9850   -8.4540   70.7530 C   0  0  0  0  0  2  0  0  0  0  0  0
   14.4160   -7.6460   70.8430 C   0  0  0  0  0  2  0  0  0  0  0  0
   13.3210   -8.3370   70.0170 C   0  0  0  0  0  2  0  0  0  0  0  0
   12.7720   -7.4070   76.5940 N   0  0  0  0  0  0  0  0  0  0  0  0
   12.1160   -6.7230   76.9970 H   0  0  0  0  0  0  0  0  0  0  0  0
   13.9740   -7.3100   77.4240 C   0  0  0  0  0  3  0  0  0  0  0  0
   15.3060   -7.0890   76.7100 C   0  0  0  0  0  2  0  0  0  0  0  0
   13.8220   -6.3360   78.5870 C   0  0  0  0  0  2  0  0  0  0  0  0
   16.4710   -7.2520   77.6860 C   0  0  0  0  0  2  0  0  0  0  0  0
   14.9640   -6.5050   79.5880 C   0  0  0  0  0  2  0  0  0  0  0  0
   16.3290   -6.3600   78.9220 C   0  0  0  0  0  2  0  0  0  0  0  0
  1 14  1  0  0  0  0
  1  2  1  0  0  0  0
  3  8  1  0  0  0  0
  3  2  1  0  0  0  0
  4  6  1  0  0  0  0
  4 12  1  0  0  0  0
  4 11  1  0  0  0  0
  5  4  1  0  0  0  0
  7  9  1  6  0  0  0
  7  5  1  0  0  0  0
  7  8  1  0  0  0  0
  8  6  1  0  0  0  0
  9 10  1  0  0  0  0
 10  3  2  0  0  0  0
 13  5  1  0  0  0  0
 14 23  1  0  0  0  0
 15 16  1  0  0  0  0
 15 14  1  0  0  0  0
 17 15  1  0  0  0  0
 18 17  1  0  0  0  0
 19 17  1  0  0  0  0
 20 18  1  0  0  0  0
 21 19  1  0  0  0  0
 22 20  1  0  0  0  0
 22 21  1  0  0  0  0
 23 24  1  0  0  0  0
 23 25  1  0  0  0  0
 25 27  1  0  0  0  0
 26 25  1  0  0  0  0
 26 28  1  0  0  0  0
 27 29  1  0  0  0  0
 28 30  1  0  0  0  0
 30 29  1  0  0  0  0
M  END
>  <MODEL>
2

>  <REMARK>
 VINA RESULT:    -5.724      1.891      6.761
 INTER + INTRA:          -9.301
 INTER:                  -8.414
 INTRA:                  -0.888
 UNBOUND:                -1.235
 SMILES CC1(C)CN2[C@H](CSC(NC3CCCCC3)NC3CCCCC3)CS[C@@H]2N1
 SMILES IDX 8 1 7 2 6 3 2 4 27 5 4 6 26 7 5 8 25 9 24 10 1 11 3 12 9 14
 SMILES IDX 10 15 11 17 12 18 16 19 13 20 15 21 14 22 17 23 18 25 19 26
 SMILES IDX 23 27 20 28 22 29 21 30
 H PARENT 27 13 10 16 17 24

>  <TORSDO>
F 7

$$$$
D:\Codex\projectless-workspaces\2026-08-22\non\work\whynot17\analysis\dinp_crc_structural_pipeline\outputs\stage2_refine_and_rescue\cxcr4_refinement\it1t_s0.70_e64_seed590836.pdbqt
 OpenBabel09032623223D

 30 33  0  0  1  0  0  0  0  0999 V2000
   13.1800   -6.8200   75.4420 S   0  0  0  0  0  0  0  0  0  0  0  0
   12.8180   -5.1330   75.0670 C   0  0  0  0  0  2  0  0  0  0  0  0
   12.8390   -4.3530   76.3590 C   0  0  0  0  0  0  0  0  0  0  0  0
   14.9490   -1.3980   76.6110 C   0  0  0  0  0  0  0  0  0  0  0  0
   14.2510   -1.6390   77.8730 N   0  0  0  0  0  0  0  0  0  0  0  0
   14.6060   -2.5930   75.7080 C   0  0  0  0  0  2  0  0  0  0  0  0
   13.5170   -2.7520   77.7410 C   0  0  2  0  0  3  0  0  0  0  0  0
   13.6320   -3.2680   76.5480 N   0  0  0  0  0  0  0  0  0  0  0  0
   12.3080   -3.4700   78.7200 S   0  0  0  0  0  0  0  0  0  0  0  0
   12.0160   -4.6490   77.4720 C   0  0  0  0  0  3  0  0  0  0  0  0
   16.4490   -1.3390   76.8660 C   0  0  0  0  0  1  0  0  0  0  0  0
   14.4320   -0.1090   75.9770 C   0  0  0  0  0  1  0  0  0  0  0  0
   14.9370   -1.7620   78.6320 H   0  0  0  0  0  0  0  0  0  0  0  0
   14.7430   -7.1430   74.9460 C   0  0  0  0  0  3  0  0  0  0  0  0
   14.8650   -7.9620   73.8960 N   0  0  0  0  0  0  0  0  0  0  0  0
   15.8510   -7.8660   73.6150 H   0  0  0  0  0  0  0  0  0  0  0  0
   14.1360   -7.9820   72.6360 C   0  0  0  0  0  3  0  0  0  0  0  0
   13.1650   -9.1420   72.4770 C   0  0  0  0  0  2  0  0  0  0  0  0
   14.9160   -7.7430   71.3530 C   0  0  0  0  0  2  0  0  0  0  0  0
   12.1350   -8.7930   71.4040 C   0  0  0  0  0  2  0  0  0  0  0  0
   13.9400   -7.4100   70.2220 C   0  0  0  0  0  2  0  0  0  0  0  0
   12.7850   -8.4110   70.0730 C   0  0  0  0  0  2  0  0  0  0  0  0
   15.7940   -6.6170   75.5890 N   0  0  0  0  0  0  0  0  0  0  0  0
   16.6090   -6.8510   75.0040 H   0  0  0  0  0  0  0  0  0  0  0  0
   16.2230   -6.9000   76.9600 C   0  0  0  0  0  3  0  0  0  0  0  0
   17.7190   -7.0800   77.2070 C   0  0  0  0  0  2  0  0  0  0  0  0
   15.6240   -5.9440   77.9850 C   0  0  0  0  0  2  0  0  0  0  0  0
   17.9710   -7.6020   78.6210 C   0  0  0  0  0  2  0  0  0  0  0  0
   15.8410   -6.4660   79.4050 C   0  0  0  0  0  2  0  0  0  0  0  0
   17.3160   -6.7290   79.6930 C   0  0  0  0  0  2  0  0  0  0  0  0
  2  1  1  0  0  0  0
  2  3  1  0  0  0  0
  3  8  1  0  0  0  0
  3 10  2  0  0  0  0
  4 11  1  0  0  0  0
  4  5  1  0  0  0  0
  5 13  1  0  0  0  0
  6  8  1  0  0  0  0
  6  4  1  0  0  0  0
  7  5  1  0  0  0  0
  7  9  1  6  0  0  0
  8  7  1  0  0  0  0
 10  9  1  0  0  0  0
 12  4  1  0  0  0  0
 14  1  1  0  0  0  0
 14 23  1  0  0  0  0
 15 14  1  0  0  0  0
 16 15  1  0  0  0  0
 17 15  1  0  0  0  0
 18 17  1  0  0  0  0
 19 17  1  0  0  0  0
 20 18  1  0  0  0  0
 21 19  1  0  0  0  0
 22 21  1  0  0  0  0
 22 20  1  0  0  0  0
 23 25  1  0  0  0  0
 24 23  1  0  0  0  0
 25 26  1  0  0  0  0
 25 27  1  0  0  0  0
 26 28  1  0  0  0  0
 27 29  1  0  0  0  0
 28 30  1  0  0  0  0
 29 30  1  0  0  0  0
M  END
>  <MODEL>
3

>  <REMARK>
 VINA RESULT:    -5.670      1.683      6.627
 INTER + INTRA:          -9.225
 INTER:                  -8.245
 INTRA:                  -0.980
 UNBOUND:                -1.235
 SMILES CC1(C)CN2[C@H](CSC(NC3CCCCC3)NC3CCCCC3)CS[C@@H]2N1
 SMILES IDX 8 1 7 2 6 3 2 4 27 5 4 6 26 7 5 8 25 9 24 10 1 11 3 12 9 14
 SMILES IDX 10 15 11 17 12 18 16 19 13 20 15 21 14 22 17 23 18 25 19 26
 SMILES IDX 23 27 20 28 22 29 21 30
 H PARENT 27 13 10 16 17 24

>  <TORSDO>
F 7

$$$$
D:\Codex\projectless-workspaces\2026-08-22\non\work\whynot17\analysis\dinp_crc_structural_pipeline\outputs\stage2_refine_and_rescue\cxcr4_refinement\it1t_s0.70_e64_seed590836.pdbqt
 OpenBabel09032623223D

 30 33  0  0  1  0  0  0  0  0999 V2000
   15.5970   -5.8450   74.9370 S   0  0  0  0  0  0  0  0  0  0  0  0
   15.3310   -4.5170   76.0700 C   0  0  0  0  0  2  0  0  0  0  0  0
   14.9790   -3.2860   75.2700 C   0  0  0  0  0  0  0  0  0  0  0  0
   14.4230   -0.1400   77.0140 C   0  0  0  0  0  0  0  0  0  0  0  0
   14.2260    0.0300   75.5740 N   0  0  0  0  0  0  0  0  0  0  0  0
   14.6590   -1.6430   77.2300 C   0  0  0  0  0  2  0  0  0  0  0  0
   14.4080   -1.1590   74.9830 C   0  0  2  0  0  3  0  0  0  0  0  0
   14.7120   -2.0870   75.8480 N   0  0  0  0  0  0  0  0  0  0  0  0
   14.5530   -1.6300   73.3420 S   0  0  0  0  0  0  0  0  0  0  0  0
   14.9310   -3.2520   73.8560 C   0  0  0  0  0  3  0  0  0  0  0  0
   13.1700    0.3130   77.7510 C   0  0  0  0  0  1  0  0  0  0  0  0
   15.6550    0.6440   77.4580 C   0  0  0  0  0  1  0  0  0  0  0  0
   13.2710    0.3680   75.3910 H   0  0  0  0  0  0  0  0  0  0  0  0
   15.0750   -7.2610   75.6570 C   0  0  0  0  0  3  0  0  0  0  0  0
   15.4030   -7.4160   76.9440 N   0  0  0  0  0  0  0  0  0  0  0  0
   14.9070   -6.6510   77.4240 H   0  0  0  0  0  0  0  0  0  0  0  0
   16.7120   -7.4430   77.5790 C   0  0  0  0  0  3  0  0  0  0  0  0
   16.7910   -6.7190   78.9150 C   0  0  0  0  0  2  0  0  0  0  0  0
   17.9310   -7.1410   76.7210 C   0  0  0  0  0  2  0  0  0  0  0  0
   18.0030   -7.2280   79.6930 C   0  0  0  0  0  2  0  0  0  0  0  0
   19.1930   -7.6050   77.4540 C   0  0  0  0  0  2  0  0  0  0  0  0
   19.3040   -7.0960   78.8990 C   0  0  0  0  0  2  0  0  0  0  0  0
   14.3890   -8.1770   74.9610 N   0  0  0  0  0  0  0  0  0  0  0  0
   14.9770   -9.0220   74.9820 H   0  0  0  0  0  0  0  0  0  0  0  0
   13.9310   -8.0720   73.5740 C   0  0  0  0  0  3  0  0  0  0  0  0
   14.9410   -8.3890   72.4740 C   0  0  0  0  0  2  0  0  0  0  0  0
   12.6170   -8.8020   73.3200 C   0  0  0  0  0  2  0  0  0  0  0  0
   14.3830   -8.0010   71.1050 C   0  0  0  0  0  2  0  0  0  0  0  0
   12.0300   -8.4040   71.9660 C   0  0  0  0  0  2  0  0  0  0  0  0
   13.0190   -8.6360   70.8280 C   0  0  0  0  0  2  0  0  0  0  0  0
  1 14  1  0  0  0  0
  1  2  1  0  0  0  0
  3  8  1  0  0  0  0
  3  2  1  0  0  0  0
  4  6  1  0  0  0  0
  4 12  1  0  0  0  0
  4 11  1  0  0  0  0
  5  4  1  0  0  0  0
  7  9  1  6  0  0  0
  7  5  1  0  0  0  0
  7  8  1  0  0  0  0
  8  6  1  0  0  0  0
  9 10  1  0  0  0  0
 10  3  2  0  0  0  0
 13  5  1  0  0  0  0
 14 15  1  0  0  0  0
 15 16  1  0  0  0  0
 15 17  1  0  0  0  0
 17 18  1  0  0  0  0
 18 20  1  0  0  0  0
 19 21  1  0  0  0  0
 19 17  1  0  0  0  0
 21 22  1  0  0  0  0
 22 20  1  0  0  0  0
 23 24  1  0  0  0  0
 23 14  1  0  0  0  0
 25 23  1  0  0  0  0
 26 25  1  0  0  0  0
 27 25  1  0  0  0  0
 28 26  1  0  0  0  0
 29 27  1  0  0  0  0
 30 28  1  0  0  0  0
 30 29  1  0  0  0  0
M  END
>  <MODEL>
4

>  <REMARK>
 VINA RESULT:    -5.657      1.844      6.089
 INTER + INTRA:          -9.206
 INTER:                  -8.928
 INTRA:                  -0.279
 UNBOUND:                -1.235
 SMILES CC1(C)CN2[C@H](CSC(NC3CCCCC3)NC3CCCCC3)CS[C@@H]2N1
 SMILES IDX 8 1 7 2 6 3 2 4 27 5 4 6 26 7 5 8 25 9 24 10 1 11 3 12 9 14
 SMILES IDX 10 15 11 17 12 18 16 19 13 20 15 21 14 22 17 23 18 25 19 26
 SMILES IDX 23 27 20 28 22 29 21 30
 H PARENT 27 13 10 16 17 24

>  <TORSDO>
F 7

$$$$
D:\Codex\projectless-workspaces\2026-08-22\non\work\whynot17\analysis\dinp_crc_structural_pipeline\outputs\stage2_refine_and_rescue\cxcr4_refinement\it1t_s0.70_e64_seed590836.pdbqt
 OpenBabel09032623223D

 30 33  0  0  1  0  0  0  0  0999 V2000
   15.0680   -5.2970   76.6300 S   0  0  0  0  0  0  0  0  0  0  0  0
   13.5840   -4.6630   75.9130 C   0  0  0  0  0  2  0  0  0  0  0  0
   13.9330   -3.4090   75.1500 C   0  0  0  0  0  0  0  0  0  0  0  0
   14.4090   -0.2970   76.9780 C   0  0  0  0  0  0  0  0  0  0  0  0
   14.5790   -0.0790   75.5420 N   0  0  0  0  0  0  0  0  0  0  0  0
   13.9560   -1.7580   77.1290 C   0  0  0  0  0  2  0  0  0  0  0  0
   14.3620   -1.2420   74.9120 C   0  0  2  0  0  3  0  0  0  0  0  0
   14.0820   -2.2010   75.7520 N   0  0  0  0  0  0  0  0  0  0  0  0
   14.6080   -1.7520   73.2950 S   0  0  0  0  0  0  0  0  0  0  0  0
   14.1750   -3.3750   73.7550 C   0  0  0  0  0  3  0  0  0  0  0  0
   13.3410    0.6480   77.5090 C   0  0  0  0  0  1  0  0  0  0  0  0
   15.7460   -0.0980   77.6880 C   0  0  0  0  0  1  0  0  0  0  0  0
   13.9040    0.6260   75.2140 H   0  0  0  0  0  0  0  0  0  0  0  0
   15.1780   -6.9230   76.2570 C   0  0  0  0  0  3  0  0  0  0  0  0
   14.1460   -7.4370   75.5780 N   0  0  0  0  0  0  0  0  0  0  0  0
   13.8420   -8.2360   76.1510 H   0  0  0  0  0  0  0  0  0  0  0  0
   14.0810   -7.9330   74.2110 C   0  0  0  0  0  3  0  0  0  0  0  0
   14.7450   -7.0390   73.1740 C   0  0  0  0  0  2  0  0  0  0  0  0
   12.7490   -8.4610   73.7040 C   0  0  0  0  0  2  0  0  0  0  0  0
   15.0550   -7.8620   71.9250 C   0  0  0  0  0  2  0  0  0  0  0  0
   12.9800   -9.2810   72.4320 C   0  0  0  0  0  2  0  0  0  0  0  0
   13.8140   -8.5590   71.3620 C   0  0  0  0  0  2  0  0  0  0  0  0
   16.2360   -7.6490   76.6420 N   0  0  0  0  0  0  0  0  0  0  0  0
   15.8360   -8.4460   77.1580 H   0  0  0  0  0  0  0  0  0  0  0  0
   17.3650   -7.2010   77.4580 C   0  0  0  0  0  3  0  0  0  0  0  0
   17.3090   -7.4900   78.9560 C   0  0  0  0  0  2  0  0  0  0  0  0
   18.7180   -7.6080   76.8850 C   0  0  0  0  0  2  0  0  0  0  0  0
   18.4310   -6.7530   79.6870 C   0  0  0  0  0  2  0  0  0  0  0  0
   19.8500   -6.8580   77.5860 C   0  0  0  0  0  2  0  0  0  0  0  0
   19.8110   -7.0550   79.0980 C   0  0  0  0  0  2  0  0  0  0  0  0
  2  1  1  0  0  0  0
  3  8  1  0  0  0  0
  3  2  1  0  0  0  0
  4  6  1  0  0  0  0
  4 11  1  0  0  0  0
  4 12  1  0  0  0  0
  5  4  1  0  0  0  0
  7  9  1  1  0  0  0
  7  5  1  0  0  0  0
  7  8  1  0  0  0  0
  8  6  1  0  0  0  0
  9 10  1  0  0  0  0
 10  3  2  0  0  0  0
 13  5  1  0  0  0  0
 14  1  1  0  0  0  0
 14 23  1  0  0  0  0
 15 16  1  0  0  0  0
 15 14  1  0  0  0  0
 17 15  1  0  0  0  0
 18 17  1  0  0  0  0
 19 17  1  0  0  0  0
 20 18  1  0  0  0  0
 21 19  1  0  0  0  0
 22 20  1  0  0  0  0
 22 21  1  0  0  0  0
 23 24  1  0  0  0  0
 23 25  1  0  0  0  0
 25 26  1  0  0  0  0
 26 28  1  0  0  0  0
 27 25  1  0  0  0  0
 27 29  1  0  0  0  0
 29 30  1  0  0  0  0
 30 28  1  0  0  0  0
M  END
>  <MODEL>
5

>  <REMARK>
 VINA RESULT:    -5.641      1.722      6.689
 INTER + INTRA:          -9.184
 INTER:                  -8.270
 INTRA:                  -0.914
 UNBOUND:                -1.235
 SMILES CC1(C)CN2[C@H](CSC(NC3CCCCC3)NC3CCCCC3)CS[C@@H]2N1
 SMILES IDX 8 1 7 2 6 3 2 4 27 5 4 6 26 7 5 8 25 9 24 10 1 11 3 12 9 14
 SMILES IDX 10 15 11 17 12 18 16 19 13 20 15 21 14 22 17 23 18 25 19 26
 SMILES IDX 23 27 20 28 22 29 21 30
 H PARENT 27 13 10 16 17 24

>  <TORSDO>
F 7

$$$$
D:\Codex\projectless-workspaces\2026-08-22\non\work\whynot17\analysis\dinp_crc_structural_pipeline\outputs\stage2_refine_and_rescue\cxcr4_refinement\it1t_s0.70_e64_seed590836.pdbqt
 OpenBabel09032623223D

 30 33  0  0  1  0  0  0  0  0999 V2000
   12.2350   -5.4900   74.1800 S   0  0  0  0  0  0  0  0  0  0  0  0
   12.5350   -4.3380   75.4840 C   0  0  0  0  0  2  0  0  0  0  0  0
   13.2700   -3.1550   74.9020 C   0  0  0  0  0  0  0  0  0  0  0  0
   14.3760   -0.4890   77.1190 C   0  0  0  0  0  0  0  0  0  0  0  0
   14.7290   -0.1830   75.7340 N   0  0  0  0  0  0  0  0  0  0  0  0
   13.5430   -1.7790   77.0640 C   0  0  0  0  0  2  0  0  0  0  0  0
   14.2730   -1.1740   74.9560 C   0  0  2  0  0  3  0  0  0  0  0  0
   13.6750   -2.1000   75.6540 N   0  0  0  0  0  0  0  0  0  0  0  0
   14.5260   -1.5680   73.3070 S   0  0  0  0  0  0  0  0  0  0  0  0
   13.6400   -3.0500   73.5400 C   0  0  0  0  0  3  0  0  0  0  0  0
   13.5490    0.6530   77.6940 C   0  0  0  0  0  1  0  0  0  0  0  0
   15.6470   -0.7320   77.9310 C   0  0  0  0  0  1  0  0  0  0  0  0
   14.2960    0.7080   75.4530 H   0  0  0  0  0  0  0  0  0  0  0  0
   12.7120   -7.0060   74.7000 C   0  0  0  0  0  3  0  0  0  0  0  0
   12.7730   -7.1760   76.0240 N   0  0  0  0  0  0  0  0  0  0  0  0
   12.1210   -6.4720   76.3980 H   0  0  0  0  0  0  0  0  0  0  0  0
   13.9150   -7.1150   76.9230 C   0  0  0  0  0  3  0  0  0  0  0  0
   13.6840   -6.3170   78.1990 C   0  0  0  0  0  2  0  0  0  0  0  0
   15.2800   -6.8090   76.3280 C   0  0  0  0  0  2  0  0  0  0  0  0
   14.7150   -6.7320   79.2470 C   0  0  0  0  0  2  0  0  0  0  0  0
   16.3690   -7.1790   77.3390 C   0  0  0  0  0  2  0  0  0  0  0  0
   16.1520   -6.5890   78.7410 C   0  0  0  0  0  2  0  0  0  0  0  0
   13.0270   -7.9680   73.8220 N   0  0  0  0  0  0  0  0  0  0  0  0
   13.9630   -8.2910   74.1080 H   0  0  0  0  0  0  0  0  0  0  0  0
   13.1000   -7.8460   72.3650 C   0  0  0  0  0  3  0  0  0  0  0  0
   14.4780   -7.9600   71.7180 C   0  0  0  0  0  2  0  0  0  0  0  0
   12.0930   -8.7300   71.6390 C   0  0  0  0  0  2  0  0  0  0  0  0
   14.4100   -7.5730   70.2410 C   0  0  0  0  0  2  0  0  0  0  0  0
   11.9910   -8.3370   70.1650 C   0  0  0  0  0  2  0  0  0  0  0  0
   13.3510   -8.3680   69.4740 C   0  0  0  0  0  2  0  0  0  0  0  0
  1 14  1  0  0  0  0
  1  2  1  0  0  0  0
  3  2  1  0  0  0  0
  3  8  1  0  0  0  0
  4 11  1  0  0  0  0
  4 12  1  0  0  0  0
  5  4  1  0  0  0  0
  6  4  1  0  0  0  0
  7  9  1  1  0  0  0
  7  8  1  0  0  0  0
  7  5  1  0  0  0  0
  8  6  1  0  0  0  0
  9 10  1  0  0  0  0
 10  3  2  0  0  0  0
 13  5  1  0  0  0  0
 14 15  1  0  0  0  0
 15 16  1  0  0  0  0
 15 17  1  0  0  0  0
 17 18  1  0  0  0  0
 18 20  1  0  0  0  0
 19 17  1  0  0  0  0
 19 21  1  0  0  0  0
 21 22  1  0  0  0  0
 22 20  1  0  0  0  0
 23 24  1  0  0  0  0
 23 14  1  0  0  0  0
 25 23  1  0  0  0  0
 26 25  1  0  0  0  0
 27 25  1  0  0  0  0
 28 26  1  0  0  0  0
 29 27  1  0  0  0  0
 30 29  1  0  0  0  0
 30 28  1  0  0  0  0
M  END
>  <MODEL>
6

>  <REMARK>
 VINA RESULT:    -5.618      1.963      6.390
 INTER + INTRA:          -9.151
 INTER:                  -8.356
 INTRA:                  -0.795
 UNBOUND:                -1.235
 SMILES CC1(C)CN2[C@H](CSC(NC3CCCCC3)NC3CCCCC3)CS[C@@H]2N1
 SMILES IDX 8 1 7 2 6 3 2 4 27 5 4 6 26 7 5 8 25 9 24 10 1 11 3 12 9 14
 SMILES IDX 10 15 11 17 12 18 16 19 13 20 15 21 14 22 17 23 18 25 19 26
 SMILES IDX 23 27 20 28 22 29 21 30
 H PARENT 27 13 10 16 17 24

>  <TORSDO>
F 7

$$$$
D:\Codex\projectless-workspaces\2026-08-22\non\work\whynot17\analysis\dinp_crc_structural_pipeline\outputs\stage2_refine_and_rescue\cxcr4_refinement\it1t_s0.70_e64_seed590836.pdbqt
 OpenBabel09032623223D

 30 33  0  0  1  0  0  0  0  0999 V2000
   14.7820   -7.0690   76.7880 S   0  0  0  0  0  0  0  0  0  0  0  0
   15.4460   -5.6450   77.5940 C   0  0  0  0  0  2  0  0  0  0  0  0
   14.3190   -4.6660   77.8140 C   0  0  0  0  0  0  0  0  0  0  0  0
   15.0940   -1.1320   78.2140 C   0  0  0  0  0  0  0  0  0  0  0  0
   13.6540   -1.3570   78.3290 N   0  0  0  0  0  0  0  0  0  0  0  0
   15.7280   -2.5270   78.1020 C   0  0  0  0  0  2  0  0  0  0  0  0
   13.4240   -2.6720   78.2090 C   0  0  2  0  0  3  0  0  0  0  0  0
   14.5280   -3.3400   78.0170 N   0  0  0  0  0  0  0  0  0  0  0  0
   11.9880   -3.5880   78.0220 S   0  0  0  0  0  0  0  0  0  0  0  0
   12.9490   -5.0220   77.7920 C   0  0  0  0  0  3  0  0  0  0  0  0
   15.5950   -0.4190   79.4630 C   0  0  0  0  0  1  0  0  0  0  0  0
   15.3880   -0.3300   76.9490 C   0  0  0  0  0  1  0  0  0  0  0  0
   13.3220   -1.0280   79.2460 H   0  0  0  0  0  0  0  0  0  0  0  0
   15.0070   -6.8910   75.1410 C   0  0  0  0  0  3  0  0  0  0  0  0
   14.6330   -7.9290   74.3850 N   0  0  0  0  0  0  0  0  0  0  0  0
   15.4840   -8.5030   74.3090 H   0  0  0  0  0  0  0  0  0  0  0  0
   14.0660   -7.9530   73.0460 C   0  0  0  0  0  3  0  0  0  0  0  0
   12.9230   -8.9390   72.8530 C   0  0  0  0  0  2  0  0  0  0  0  0
   15.0210   -7.9870   71.8630 C   0  0  0  0  0  2  0  0  0  0  0  0
   12.1070   -8.5310   71.6280 C   0  0  0  0  0  2  0  0  0  0  0  0
   14.2620   -7.6100   70.5880 C   0  0  0  0  0  2  0  0  0  0  0  0
   12.9670   -8.4080   70.3680 C   0  0  0  0  0  2  0  0  0  0  0  0
   15.5500   -5.7750   74.6350 N   0  0  0  0  0  0  0  0  0  0  0  0
   16.1140   -5.3820   75.4030 H   0  0  0  0  0  0  0  0  0  0  0  0
   14.8400   -4.6280   74.0660 C   0  0  0  0  0  3  0  0  0  0  0  0
   13.3160   -4.6300   74.1520 C   0  0  0  0  0  2  0  0  0  0  0  0
   15.4000   -3.2870   74.5280 C   0  0  0  0  0  2  0  0  0  0  0  0
   12.7290   -3.4980   73.3090 C   0  0  0  0  0  2  0  0  0  0  0  0
   14.8460   -2.1460   73.6750 C   0  0  0  0  0  2  0  0  0  0  0  0
   13.3200   -2.1330   73.6680 C   0  0  0  0  0  2  0  0  0  0  0  0
  1  2  1  0  0  0  0
  2  3  1  0  0  0  0
  3  8  1  0  0  0  0
  4  5  1  0  0  0  0
  4 11  1  0  0  0  0
  5 13  1  0  0  0  0
  6  4  1  0  0  0  0
  7  9  1  6  0  0  0
  7  5  1  0  0  0  0
  8  6  1  0  0  0  0
  8  7  1  0  0  0  0
 10  3  2  0  0  0  0
 10  9  1  0  0  0  0
 12  4  1  0  0  0  0
 14  1  1  0  0  0  0
 15 14  1  0  0  0  0
 16 15  1  0  0  0  0
 17 15  1  0  0  0  0
 18 17  1  0  0  0  0
 19 17  1  0  0  0  0
 20 18  1  0  0  0  0
 21 19  1  0  0  0  0
 22 21  1  0  0  0  0
 22 20  1  0  0  0  0
 23 14  1  0  0  0  0
 23 24  1  0  0  0  0
 25 26  1  0  0  0  0
 25 27  1  0  0  0  0
 25 23  1  0  0  0  0
 28 30  1  0  0  0  0
 28 26  1  0  0  0  0
 29 27  1  0  0  0  0
 30 29  1  0  0  0  0
M  END
>  <MODEL>
7

>  <REMARK>
 VINA RESULT:    -5.617      2.441      6.360
 INTER + INTRA:          -9.150
 INTER:                  -7.711
 INTRA:                  -1.439
 UNBOUND:                -1.235
 SMILES CC1(C)CN2[C@H](CSC(NC3CCCCC3)NC3CCCCC3)CS[C@@H]2N1
 SMILES IDX 8 1 7 2 6 3 2 4 27 5 4 6 26 7 5 8 25 9 24 10 1 11 3 12 9 14
 SMILES IDX 10 15 11 17 12 18 16 19 13 20 15 21 14 22 17 23 18 25 19 26
 SMILES IDX 23 27 20 28 22 29 21 30
 H PARENT 27 13 10 16 17 24

>  <TORSDO>
F 7

$$$$
D:\Codex\projectless-workspaces\2026-08-22\non\work\whynot17\analysis\dinp_crc_structural_pipeline\outputs\stage2_refine_and_rescue\cxcr4_refinement\it1t_s0.70_e64_seed590836.pdbqt
 OpenBabel09032623223D

 30 33  0  0  1  0  0  0  0  0999 V2000
   13.7170   -5.9870   74.1880 S   0  0  0  0  0  0  0  0  0  0  0  0
   15.1820   -5.0070   74.2960 C   0  0  0  0  0  2  0  0  0  0  0  0
   14.7670   -3.5690   74.4870 C   0  0  0  0  0  0  0  0  0  0  0  0
   14.9160   -2.1080   77.8170 C   0  0  0  0  0  0  0  0  0  0  0  0
   14.4080   -1.1330   76.8520 N   0  0  0  0  0  0  0  0  0  0  0  0
   15.0590   -3.4280   77.0440 C   0  0  0  0  0  2  0  0  0  0  0  0
   14.3400   -1.7270   75.6530 C   0  0  2  0  0  3  0  0  0  0  0  0
   14.7500   -2.9650   75.7020 N   0  0  0  0  0  0  0  0  0  0  0  0
   14.0590   -1.1260   74.0730 S   0  0  0  0  0  0  0  0  0  0  0  0
   14.3970   -2.7070   73.4260 C   0  0  0  0  0  3  0  0  0  0  0  0
   13.9140   -2.2630   78.9530 C   0  0  0  0  0  1  0  0  0  0  0  0
   16.2830   -1.6590   78.3270 C   0  0  0  0  0  1  0  0  0  0  0  0
   13.4700   -0.8170   77.1380 H   0  0  0  0  0  0  0  0  0  0  0  0
   14.1450   -7.5920   74.3840 C   0  0  0  0  0  3  0  0  0  0  0  0
   14.0050   -8.0860   75.6190 N   0  0  0  0  0  0  0  0  0  0  0  0
   12.9930   -8.0290   75.7990 H   0  0  0  0  0  0  0  0  0  0  0  0
   14.6130   -7.6600   76.8700 C   0  0  0  0  0  3  0  0  0  0  0  0
   13.7520   -6.7360   77.7190 C   0  0  0  0  0  2  0  0  0  0  0  0
   16.0570   -7.1860   76.8410 C   0  0  0  0  0  2  0  0  0  0  0  0
   14.2470   -6.7710   79.1630 C   0  0  0  0  0  2  0  0  0  0  0  0
   16.6150   -7.1720   78.2670 C   0  0  0  0  0  2  0  0  0  0  0  0
   15.7330   -6.4260   79.2790 C   0  0  0  0  0  2  0  0  0  0  0  0
   14.6140   -8.3120   73.3560 N   0  0  0  0  0  0  0  0  0  0  0  0
   15.5680   -7.9560   73.1970 H   0  0  0  0  0  0  0  0  0  0  0  0
   14.0280   -8.4290   72.0200 C   0  0  0  0  0  3  0  0  0  0  0  0
   12.5080   -8.3460   71.9080 C   0  0  0  0  0  2  0  0  0  0  0  0
   14.6900   -7.5170   70.9930 C   0  0  0  0  0  2  0  0  0  0  0  0
   12.0520   -8.7250   70.4990 C   0  0  0  0  0  2  0  0  0  0  0  0
   14.2670   -7.9010   69.5750 C   0  0  0  0  0  2  0  0  0  0  0  0
   12.7500   -7.9000   69.4160 C   0  0  0  0  0  2  0  0  0  0  0  0
  1  2  1  0  0  0  0
  1 14  1  0  0  0  0
  2  3  1  0  0  0  0
  3  8  1  0  0  0  0
  4 12  1  0  0  0  0
  4 11  1  0  0  0  0
  5 13  1  0  0  0  0
  5  4  1  0  0  0  0
  6  4  1  0  0  0  0
  7  9  1  6  0  0  0
  7  8  1  0  0  0  0
  7  5  1  0  0  0  0
  8  6  1  0  0  0  0
 10  9  1  0  0  0  0
 10  3  2  0  0  0  0
 14 15  1  0  0  0  0
 15 16  1  0  0  0  0
 15 17  1  0  0  0  0
 17 18  1  0  0  0  0
 18 20  1  0  0  0  0
 19 17  1  0  0  0  0
 19 21  1  0  0  0  0
 20 22  1  0  0  0  0
 21 22  1  0  0  0  0
 23 14  1  0  0  0  0
 24 23  1  0  0  0  0
 25 23  1  0  0  0  0
 26 25  1  0  0  0  0
 27 25  1  0  0  0  0
 28 26  1  0  0  0  0
 29 27  1  0  0  0  0
 30 29  1  0  0  0  0
 30 28  1  0  0  0  0
M  END
>  <MODEL>
8

>  <REMARK>
 VINA RESULT:    -5.550      2.021      6.225
 INTER + INTRA:          -9.056
 INTER:                  -8.230
 INTRA:                  -0.826
 UNBOUND:                -1.235
 SMILES CC1(C)CN2[C@H](CSC(NC3CCCCC3)NC3CCCCC3)CS[C@@H]2N1
 SMILES IDX 8 1 7 2 6 3 2 4 27 5 4 6 26 7 5 8 25 9 24 10 1 11 3 12 9 14
 SMILES IDX 10 15 11 17 12 18 16 19 13 20 15 21 14 22 17 23 18 25 19 26
 SMILES IDX 23 27 20 28 22 29 21 30
 H PARENT 27 13 10 16 17 24

>  <TORSDO>
F 7

$$$$
D:\Codex\projectless-workspaces\2026-08-22\non\work\whynot17\analysis\dinp_crc_structural_pipeline\outputs\stage2_refine_and_rescue\cxcr4_refinement\it1t_s0.70_e64_seed590836.pdbqt
 OpenBabel09032623223D

 30 33  0  0  1  0  0  0  0  0999 V2000
   13.4770   -4.3200   73.6820 S   0  0  0  0  0  0  0  0  0  0  0  0
   11.9850   -4.8480   72.9000 C   0  0  0  0  0  2  0  0  0  0  0  0
   12.3580   -5.6610   71.6840 C   0  0  0  0  0  0  0  0  0  0  0  0
   13.5250   -9.0800   72.1280 C   0  0  0  0  0  0  0  0  0  0  0  0
   13.5290   -8.7160   70.7110 N   0  0  0  0  0  0  0  0  0  0  0  0
   13.1490   -7.7980   72.8880 C   0  0  0  0  0  2  0  0  0  0  0  0
   13.1250   -7.4430   70.6030 C   0  0  2  0  0  3  0  0  0  0  0  0
   12.8450   -6.9250   71.7680 N   0  0  0  0  0  0  0  0  0  0  0  0
   12.6890   -6.4720   69.2610 S   0  0  0  0  0  0  0  0  0  0  0  0
   12.2030   -5.2050   70.3530 C   0  0  0  0  0  3  0  0  0  0  0  0
   14.9160   -9.5480   72.5320 C   0  0  0  0  0  1  0  0  0  0  0  0
   12.4710  -10.1550   72.3780 C   0  0  0  0  0  1  0  0  0  0  0  0
   14.4800   -8.8140   70.3290 H   0  0  0  0  0  0  0  0  0  0  0  0
   13.1860   -4.1730   75.3220 C   0  0  0  0  0  3  0  0  0  0  0  0
   13.1370   -5.3170   76.0110 N   0  0  0  0  0  0  0  0  0  0  0  0
   12.3360   -5.1950   76.6450 H   0  0  0  0  0  0  0  0  0  0  0  0
   14.1510   -5.9540   76.8380 C   0  0  0  0  0  3  0  0  0  0  0  0
   14.1770   -5.4910   78.2880 C   0  0  0  0  0  2  0  0  0  0  0  0
   15.5600   -6.0770   76.2790 C   0  0  0  0  0  2  0  0  0  0  0  0
   14.8900   -6.5400   79.1390 C   0  0  0  0  0  2  0  0  0  0  0  0
   16.3450   -7.1000   77.1040 C   0  0  0  0  0  2  0  0  0  0  0  0
   16.2930   -6.8580   78.6200 C   0  0  0  0  0  2  0  0  0  0  0  0
   12.9960   -2.9710   75.8840 N   0  0  0  0  0  0  0  0  0  0  0  0
   12.2740   -2.5180   75.3050 H   0  0  0  0  0  0  0  0  0  0  0  0
   14.0030   -1.9320   76.1090 C   0  0  0  0  0  3  0  0  0  0  0  0
   13.5570   -0.6650   76.8340 C   0  0  0  0  0  2  0  0  0  0  0  0
   15.2930   -2.4700   76.7170 C   0  0  0  0  0  2  0  0  0  0  0  0
   14.6500    0.4020   76.7720 C   0  0  0  0  0  2  0  0  0  0  0  0
   16.4060   -1.4260   76.6370 C   0  0  0  0  0  2  0  0  0  0  0  0
   15.9960   -0.1090   77.2900 C   0  0  0  0  0  2  0  0  0  0  0  0
  1 14  1  0  0  0  0
  2  1  1  0  0  0  0
  3  8  1  0  0  0  0
  3  2  1  0  0  0  0
  4 12  1  0  0  0  0
  4 11  1  0  0  0  0
  4  6  1  0  0  0  0
  5  4  1  0  0  0  0
  7  9  1  6  0  0  0
  7  5  1  0  0  0  0
  7  8  1  0  0  0  0
  8  6  1  0  0  0  0
  9 10  1  0  0  0  0
 10  3  2  0  0  0  0
 13  5  1  0  0  0  0
 14 23  1  0  0  0  0
 14 15  1  0  0  0  0
 15 16  1  0  0  0  0
 15 17  1  0  0  0  0
 17 18  1  0  0  0  0
 18 20  1  0  0  0  0
 19 17  1  0  0  0  0
 19 21  1  0  0  0  0
 21 22  1  0  0  0  0
 22 20  1  0  0  0  0
 23 25  1  0  0  0  0
 24 23  1  0  0  0  0
 25 27  1  0  0  0  0
 25 26  1  0  0  0  0
 28 26  1  0  0  0  0
 28 30  1  0  0  0  0
 29 27  1  0  0  0  0
 29 30  1  0  0  0  0
M  END
>  <MODEL>
9

>  <REMARK>
 VINA RESULT:    -5.388      1.920      2.866
 INTER + INTRA:          -8.827
 INTER:                  -7.822
 INTRA:                  -1.005
 UNBOUND:                -1.235
 SMILES CC1(C)CN2[C@H](CSC(NC3CCCCC3)NC3CCCCC3)CS[C@@H]2N1
 SMILES IDX 8 1 7 2 6 3 2 4 27 5 4 6 26 7 5 8 25 9 24 10 1 11 3 12 9 14
 SMILES IDX 10 15 11 17 12 18 16 19 13 20 15 21 14 22 17 23 18 25 19 26
 SMILES IDX 23 27 20 28 22 29 21 30
 H PARENT 27 13 10 16 17 24

>  <TORSDO>
F 7

$$$$
D:\Codex\projectless-workspaces\2026-08-22\non\work\whynot17\analysis\dinp_crc_structural_pipeline\outputs\stage2_refine_and_rescue\cxcr4_refinement\it1t_s0.70_e64_seed590836.pdbqt
 OpenBabel09032623223D

 30 33  0  0  1  0  0  0  0  0999 V2000
   13.0100   -5.8610   77.4730 S   0  0  0  0  0  0  0  0  0  0  0  0
   12.3690   -6.8920   76.1910 C   0  0  0  0  0  2  0  0  0  0  0  0
   12.4310   -6.1200   74.8960 C   0  0  0  0  0  0  0  0  0  0  0  0
   13.5400   -7.8130   71.8720 C   0  0  0  0  0  0  0  0  0  0  0  0
   13.2400   -6.4090   71.5930 N   0  0  0  0  0  0  0  0  0  0  0  0
   13.3920   -7.9790   73.3920 C   0  0  0  0  0  2  0  0  0  0  0  0
   12.8700   -5.8230   72.7390 C   0  0  2  0  0  3  0  0  0  0  0  0
   12.8760   -6.6650   73.7360 N   0  0  0  0  0  0  0  0  0  0  0  0
   12.1800   -4.2950   73.0940 S   0  0  0  0  0  0  0  0  0  0  0  0
   11.9990   -4.7780   74.7570 C   0  0  0  0  0  3  0  0  0  0  0  0
   14.9680   -8.1190   71.4410 C   0  0  0  0  0  1  0  0  0  0  0  0
   12.5300   -8.7060   71.1560 C   0  0  0  0  0  1  0  0  0  0  0  0
   14.0780   -5.9420   71.2170 H   0  0  0  0  0  0  0  0  0  0  0  0
   14.6800   -5.9380   77.4220 C   0  0  0  0  0  3  0  0  0  0  0  0
   15.3170   -4.7640   77.3770 N   0  0  0  0  0  0  0  0  0  0  0  0
   15.6150   -4.6020   78.3490 H   0  0  0  0  0  0  0  0  0  0  0  0
   14.8470   -3.4620   76.9280 C   0  0  0  0  0  3  0  0  0  0  0  0
   15.3360   -3.0450   75.5480 C   0  0  0  0  0  2  0  0  0  0  0  0
   14.9150   -2.2990   77.9050 C   0  0  0  0  0  2  0  0  0  0  0  0
   14.4150   -1.9610   74.9930 C   0  0  0  0  0  2  0  0  0  0  0  0
   14.0290   -1.1580   77.3970 C   0  0  0  0  0  2  0  0  0  0  0  0
   14.2900   -0.7620   75.9350 C   0  0  0  0  0  2  0  0  0  0  0  0
   15.3160   -7.1180   77.4080 N   0  0  0  0  0  0  0  0  0  0  0  0
   14.7740   -7.7190   78.0450 H   0  0  0  0  0  0  0  0  0  0  0  0
   16.7160   -7.3700   77.7530 C   0  0  0  0  0  3  0  0  0  0  0  0
   17.7820   -6.8570   76.7870 C   0  0  0  0  0  2  0  0  0  0  0  0
   17.0600   -6.9790   79.1850 C   0  0  0  0  0  2  0  0  0  0  0  0
   19.1570   -7.4080   77.1640 C   0  0  0  0  0  2  0  0  0  0  0  0
   18.4210   -7.5460   79.5890 C   0  0  0  0  0  2  0  0  0  0  0  0
   19.5220   -7.1220   78.6230 C   0  0  0  0  0  2  0  0  0  0  0  0
  2  1  1  0  0  0  0
  3  2  1  0  0  0  0
  4  6  1  0  0  0  0
  5  4  1  0  0  0  0
  5  7  1  0  0  0  0
  6  8  1  0  0  0  0
  7  9  1  6  0  0  0
  7  8  1  0  0  0  0
  8  3  1  0  0  0  0
  9 10  1  0  0  0  0
 10  3  2  0  0  0  0
 11  4  1  0  0  0  0
 12  4  1  0  0  0  0
 13  5  1  0  0  0  0
 14  1  1  0  0  0  0
 15 14  1  0  0  0  0
 15 16  1  0  0  0  0
 17 15  1  0  0  0  0
 17 19  1  0  0  0  0
 18 17  1  0  0  0  0
 20 18  1  0  0  0  0
 20 22  1  0  0  0  0
 21 19  1  0  0  0  0
 22 21  1  0  0  0  0
 23 14  1  0  0  0  0
 23 25  1  0  0  0  0
 23 24  1  0  0  0  0
 25 27  1  0  0  0  0
 26 28  1  0  0  0  0
 26 25  1  0  0  0  0
 27 29  1  0  0  0  0
 28 30  1  0  0  0  0
 30 29  1  0  0  0  0
M  END
>  <MODEL>
10

>  <REMARK>
 VINA RESULT:    -5.370      0.637      4.858
 INTER + INTRA:          -8.802
 INTER:                  -7.907
 INTRA:                  -0.896
 UNBOUND:                -1.235
 SMILES CC1(C)CN2[C@H](CSC(NC3CCCCC3)NC3CCCCC3)CS[C@@H]2N1
 SMILES IDX 8 1 7 2 6 3 2 4 27 5 4 6 26 7 5 8 25 9 24 10 1 11 3 12 9 14
 SMILES IDX 10 15 11 17 12 18 16 19 13 20 15 21 14 22 17 23 18 25 19 26
 SMILES IDX 23 27 20 28 22 29 21 30
 H PARENT 27 13 10 16 17 24

>  <TORSDO>
F 7

$$$$
D:\Codex\projectless-workspaces\2026-08-22\non\work\whynot17\analysis\dinp_crc_structural_pipeline\outputs\stage2_refine_and_rescue\cxcr4_refinement\it1t_s0.70_e64_seed590836.pdbqt
 OpenBabel09032623223D

 30 33  0  0  1  0  0  0  0  0999 V2000
   13.4680   -4.1680   73.6630 S   0  0  0  0  0  0  0  0  0  0  0  0
   11.9850   -4.6360   72.8260 C   0  0  0  0  0  2  0  0  0  0  0  0
   12.3680   -5.4910   71.6420 C   0  0  0  0  0  0  0  0  0  0  0  0
   13.4530   -8.9180   72.2070 C   0  0  0  0  0  0  0  0  0  0  0  0
   13.4960   -8.5960   70.7810 N   0  0  0  0  0  0  0  0  0  0  0  0
   13.0880   -7.6090   72.9220 C   0  0  0  0  0  2  0  0  0  0  0  0
   13.1210   -7.3180   70.6290 C   0  0  2  0  0  3  0  0  0  0  0  0
   12.8260   -6.7620   71.7720 N   0  0  0  0  0  0  0  0  0  0  0  0
   12.7340   -6.3770   69.2510 S   0  0  0  0  0  0  0  0  0  0  0  0
   12.2520   -5.0700   70.2960 C   0  0  0  0  0  3  0  0  0  0  0  0
   14.8250   -9.4030   72.6560 C   0  0  0  0  0  1  0  0  0  0  0  0
   12.3720   -9.9650   72.4640 C   0  0  0  0  0  1  0  0  0  0  0  0
   14.4530   -8.7230   70.4240 H   0  0  0  0  0  0  0  0  0  0  0  0
   13.2120   -4.3240   75.3080 C   0  0  0  0  0  3  0  0  0  0  0  0
   13.0930   -3.1800   75.9900 N   0  0  0  0  0  0  0  0  0  0  0  0
   12.3040   -2.6990   75.5380 H   0  0  0  0  0  0  0  0  0  0  0  0
   14.0670   -2.1240   76.2230 C   0  0  0  0  0  3  0  0  0  0  0  0
   15.3060   -2.5550   76.9940 C   0  0  0  0  0  2  0  0  0  0  0  0
   13.5600   -0.7770   76.7130 C   0  0  0  0  0  2  0  0  0  0  0  0
   16.4310   -1.5540   76.7410 C   0  0  0  0  0  2  0  0  0  0  0  0
   14.6520    0.2780   76.5120 C   0  0  0  0  0  2  0  0  0  0  0  0
   16.0230   -0.1190   77.0810 C   0  0  0  0  0  2  0  0  0  0  0  0
   13.1540   -5.5310   75.8860 N   0  0  0  0  0  0  0  0  0  0  0  0
   12.3040   -5.5070   76.4670 H   0  0  0  0  0  0  0  0  0  0  0  0
   14.1720   -6.1540   76.7340 C   0  0  0  0  0  3  0  0  0  0  0  0
   15.6270   -6.0460   76.2830 C   0  0  0  0  0  2  0  0  0  0  0  0
   14.0380   -5.7780   78.2050 C   0  0  0  0  0  2  0  0  0  0  0  0
   16.5220   -6.9430   77.1380 C   0  0  0  0  0  2  0  0  0  0  0  0
   14.9060   -6.6850   79.0770 C   0  0  0  0  0  2  0  0  0  0  0  0
   16.3660   -6.6710   78.6350 C   0  0  0  0  0  2  0  0  0  0  0  0
  1 14  1  0  0  0  0
  2  1  1  0  0  0  0
  3  8  1  0  0  0  0
  3  2  1  0  0  0  0
  4 12  1  0  0  0  0
  4 11  1  0  0  0  0
  4  6  1  0  0  0  0
  5  4  1  0  0  0  0
  7  9  1  6  0  0  0
  7  5  1  0  0  0  0
  7  8  1  0  0  0  0
  8  6  1  0  0  0  0
  9 10  1  0  0  0  0
 10  3  2  0  0  0  0
 13  5  1  0  0  0  0
 14 23  1  0  0  0  0
 14 15  1  0  0  0  0
 15 17  1  0  0  0  0
 16 15  1  0  0  0  0
 17 19  1  0  0  0  0
 17 18  1  0  0  0  0
 20 18  1  0  0  0  0
 20 22  1  0  0  0  0
 21 19  1  0  0  0  0
 21 22  1  0  0  0  0
 23 24  1  0  0  0  0
 23 25  1  0  0  0  0
 25 27  1  0  0  0  0
 26 25  1  0  0  0  0
 26 28  1  0  0  0  0
 27 29  1  0  0  0  0
 28 30  1  0  0  0  0
 30 29  1  0  0  0  0
M  END
>  <MODEL>
11

>  <REMARK>
 VINA RESULT:    -5.355      1.889      4.938
 INTER + INTRA:          -8.780
 INTER:                  -7.665
 INTRA:                  -1.115
 UNBOUND:                -1.235
 SMILES CC1(C)CN2[C@H](CSC(NC3CCCCC3)NC3CCCCC3)CS[C@@H]2N1
 SMILES IDX 8 1 7 2 6 3 2 4 27 5 4 6 26 7 5 8 25 9 24 10 1 11 3 12 9 14
 SMILES IDX 10 15 11 17 12 18 16 19 13 20 15 21 14 22 17 23 18 25 19 26
 SMILES IDX 23 27 20 28 22 29 21 30
 H PARENT 27 13 10 16 17 24

>  <TORSDO>
F 7

$$$$
D:\Codex\projectless-workspaces\2026-08-22\non\work\whynot17\analysis\dinp_crc_structural_pipeline\outputs\stage2_refine_and_rescue\cxcr4_refinement\it1t_s0.70_e64_seed590836.pdbqt
 OpenBabel09032623223D

 30 33  0  0  1  0  0  0  0  0999 V2000
   15.0020   -5.3190   75.0720 S   0  0  0  0  0  0  0  0  0  0  0  0
   13.3810   -4.6380   75.2230 C   0  0  0  0  0  2  0  0  0  0  0  0
   13.2680   -3.9990   76.5860 C   0  0  0  0  0  0  0  0  0  0  0  0
   14.5630   -0.6330   77.0790 C   0  0  0  0  0  0  0  0  0  0  0  0
   14.0160   -1.1610   78.3290 N   0  0  0  0  0  0  0  0  0  0  0  0
   14.4910   -1.7900   76.0690 C   0  0  0  0  0  2  0  0  0  0  0  0
   13.5840   -2.4090   78.1040 C   0  0  2  0  0  3  0  0  0  0  0  0
   13.7660   -2.7670   76.8620 N   0  0  0  0  0  0  0  0  0  0  0  0
   12.6510   -3.5020   79.0380 S   0  0  0  0  0  0  0  0  0  0  0  0
   12.6070   -4.5980   77.6850 C   0  0  0  0  0  3  0  0  0  0  0  0
   16.0080   -0.2100   77.2990 C   0  0  0  0  0  1  0  0  0  0  0  0
   13.7010    0.5290   76.5920 C   0  0  0  0  0  1  0  0  0  0  0  0
   14.7480   -1.1700   79.0530 H   0  0  0  0  0  0  0  0  0  0  0  0
   14.9690   -6.8860   75.6550 C   0  0  0  0  0  3  0  0  0  0  0  0
   15.3170   -7.0390   76.9360 N   0  0  0  0  0  0  0  0  0  0  0  0
   14.9660   -6.1870   77.3960 H   0  0  0  0  0  0  0  0  0  0  0  0
   16.6290   -7.2480   77.5300 C   0  0  0  0  0  3  0  0  0  0  0  0
   16.7840   -6.7110   78.9460 C   0  0  0  0  0  2  0  0  0  0  0  0
   17.8550   -6.9320   76.6890 C   0  0  0  0  0  2  0  0  0  0  0  0
   17.9630   -7.4080   79.6230 C   0  0  0  0  0  2  0  0  0  0  0  0
   19.0870   -7.5810   77.3260 C   0  0  0  0  0  2  0  0  0  0  0  0
   19.2590   -7.2730   78.8210 C   0  0  0  0  0  2  0  0  0  0  0  0
   14.6290   -7.9100   74.8600 N   0  0  0  0  0  0  0  0  0  0  0  0
   15.4810   -8.4870   74.7920 H   0  0  0  0  0  0  0  0  0  0  0  0
   14.1160   -7.8340   73.4920 C   0  0  0  0  0  3  0  0  0  0  0  0
   15.1230   -7.9810   72.3530 C   0  0  0  0  0  2  0  0  0  0  0  0
   12.9060   -8.7310   73.2540 C   0  0  0  0  0  2  0  0  0  0  0  0
   14.4720   -7.6400   71.0140 C   0  0  0  0  0  2  0  0  0  0  0  0
   12.2260   -8.3830   71.9310 C   0  0  0  0  0  2  0  0  0  0  0  0
   13.1990   -8.4490   70.7580 C   0  0  0  0  0  2  0  0  0  0  0  0
  1  2  1  0  0  0  0
  1 14  1  0  0  0  0
  2  3  1  0  0  0  0
  3  8  1  0  0  0  0
  3 10  2  0  0  0  0
  4 11  1  0  0  0  0
  4  5  1  0  0  0  0
  5 13  1  0  0  0  0
  6  8  1  0  0  0  0
  6  4  1  0  0  0  0
  7  5  1  0  0  0  0
  7  9  1  6  0  0  0
  8  7  1  0  0  0  0
 10  9  1  0  0  0  0
 12  4  1  0  0  0  0
 14 15  1  0  0  0  0
 15 16  1  0  0  0  0
 15 17  1  0  0  0  0
 17 18  1  0  0  0  0
 18 20  1  0  0  0  0
 19 21  1  0  0  0  0
 19 17  1  0  0  0  0
 21 22  1  0  0  0  0
 22 20  1  0  0  0  0
 23 14  1  0  0  0  0
 24 23  1  0  0  0  0
 25 23  1  0  0  0  0
 26 25  1  0  0  0  0
 27 25  1  0  0  0  0
 28 26  1  0  0  0  0
 29 27  1  0  0  0  0
 30 28  1  0  0  0  0
 30 29  1  0  0  0  0
M  END
>  <MODEL>
12

>  <REMARK>
 VINA RESULT:    -5.326      1.701      5.940
 INTER + INTRA:          -8.740
 INTER:                  -7.872
 INTRA:                  -0.868
 UNBOUND:                -1.235
 SMILES CC1(C)CN2[C@H](CSC(NC3CCCCC3)NC3CCCCC3)CS[C@@H]2N1
 SMILES IDX 8 1 7 2 6 3 2 4 27 5 4 6 26 7 5 8 25 9 24 10 1 11 3 12 9 14
 SMILES IDX 10 15 11 17 12 18 16 19 13 20 15 21 14 22 17 23 18 25 19 26
 SMILES IDX 23 27 20 28 22 29 21 30
 H PARENT 27 13 10 16 17 24

>  <TORSDO>
F 7

$$$$
D:\Codex\projectless-workspaces\2026-08-22\non\work\whynot17\analysis\dinp_crc_structural_pipeline\outputs\stage2_refine_and_rescue\cxcr4_refinement\it1t_s0.70_e64_seed590836.pdbqt
 OpenBabel09032623223D

 30 33  0  0  1  0  0  0  0  0999 V2000
   14.2700   -8.0120   75.8600 S   0  0  0  0  0  0  0  0  0  0  0  0
   15.2300   -6.5400   75.6890 C   0  0  0  0  0  2  0  0  0  0  0  0
   15.4670   -5.9750   77.0690 C   0  0  0  0  0  0  0  0  0  0  0  0
   15.4250   -2.3660   77.5370 C   0  0  0  0  0  0  0  0  0  0  0  0
   15.7120   -3.0440   78.8010 N   0  0  0  0  0  0  0  0  0  0  0  0
   15.3890   -3.4700   76.4690 C   0  0  0  0  0  2  0  0  0  0  0  0
   15.7500   -4.3630   78.5710 C   0  0  2  0  0  3  0  0  0  0  0  0
   15.5120   -4.6420   77.3180 N   0  0  0  0  0  0  0  0  0  0  0  0
   15.8070   -5.7240   79.6110 S   0  0  0  0  0  0  0  0  0  0  0  0
   15.6240   -6.7700   78.2300 C   0  0  0  0  0  3  0  0  0  0  0  0
   16.5370   -1.3710   77.2350 C   0  0  0  0  0  1  0  0  0  0  0  0
   14.0620   -1.6840   77.6190 C   0  0  0  0  0  1  0  0  0  0  0  0
   16.6210   -2.7280   79.1670 H   0  0  0  0  0  0  0  0  0  0  0  0
   13.1070   -8.0220   74.6600 C   0  0  0  0  0  3  0  0  0  0  0  0
   12.1540   -7.0890   74.7630 N   0  0  0  0  0  0  0  0  0  0  0  0
   11.3910   -7.4420   74.1680 H   0  0  0  0  0  0  0  0  0  0  0  0
   12.2050   -5.6650   74.4670 C   0  0  0  0  0  3  0  0  0  0  0  0
   13.1270   -5.2820   73.3190 C   0  0  0  0  0  2  0  0  0  0  0  0
   12.3500   -4.6960   75.6300 C   0  0  0  0  0  2  0  0  0  0  0  0
   12.7260   -3.9070   72.7870 C   0  0  0  0  0  2  0  0  0  0  0  0
   11.9860   -3.2840   75.1620 C   0  0  0  0  0  2  0  0  0  0  0  0
   12.7120   -2.8390   73.8830 C   0  0  0  0  0  2  0  0  0  0  0  0
   13.1380   -8.9310   73.6760 N   0  0  0  0  0  0  0  0  0  0  0  0
   13.9340   -9.5430   73.9050 H   0  0  0  0  0  0  0  0  0  0  0  0
   13.2620   -8.6740   72.2400 C   0  0  0  0  0  3  0  0  0  0  0  0
   11.9930   -8.2930   71.4810 C   0  0  0  0  0  2  0  0  0  0  0  0
   14.3980   -7.7170   71.8980 C   0  0  0  0  0  2  0  0  0  0  0  0
   12.2480   -8.2980   69.9740 C   0  0  0  0  0  2  0  0  0  0  0  0
   14.6850   -7.7320   70.3970 C   0  0  0  0  0  2  0  0  0  0  0  0
   13.4370   -7.4200   69.5770 C   0  0  0  0  0  2  0  0  0  0  0  0
  2  1  1  0  0  0  0
  2  3  1  0  0  0  0
  3  8  1  0  0  0  0
  3 10  2  0  0  0  0
  4 12  1  0  0  0  0
  4  5  1  0  0  0  0
  5 13  1  0  0  0  0
  6  8  1  0  0  0  0
  6  4  1  0  0  0  0
  7  5  1  0  0  0  0
  7  9  1  1  0  0  0
  8  7  1  0  0  0  0
 10  9  1  0  0  0  0
 11  4  1  0  0  0  0
 14 15  1  0  0  0  0
 14  1  1  0  0  0  0
 16 15  1  0  0  0  0
 17 15  1  0  0  0  0
 17 19  1  0  0  0  0
 18 17  1  0  0  0  0
 20 18  1  0  0  0  0
 20 22  1  0  0  0  0
 21 19  1  0  0  0  0
 22 21  1  0  0  0  0
 23 24  1  0  0  0  0
 23 14  1  0  0  0  0
 25 23  1  0  0  0  0
 26 25  1  0  0  0  0
 27 25  1  0  0  0  0
 28 26  1  0  0  0  0
 29 27  1  0  0  0  0
 30 28  1  0  0  0  0
 30 29  1  0  0  0  0
M  END
>  <MODEL>
13

>  <REMARK>
 VINA RESULT:    -5.068      2.198      7.245
 INTER + INTRA:          -8.376
 INTER:                  -7.668
 INTRA:                  -0.708
 UNBOUND:                -1.235
 SMILES CC1(C)CN2[C@H](CSC(NC3CCCCC3)NC3CCCCC3)CS[C@@H]2N1
 SMILES IDX 8 1 7 2 6 3 2 4 27 5 4 6 26 7 5 8 25 9 24 10 1 11 3 12 9 14
 SMILES IDX 10 15 11 17 12 18 16 19 13 20 15 21 14 22 17 23 18 25 19 26
 SMILES IDX 23 27 20 28 22 29 21 30
 H PARENT 27 13 10 16 17 24

>  <TORSDO>
F 7

$$$$
D:\Codex\projectless-workspaces\2026-08-22\non\work\whynot17\analysis\dinp_crc_structural_pipeline\outputs\stage2_refine_and_rescue\cxcr4_refinement\it1t_s0.70_e64_seed590836.pdbqt
 OpenBabel09032623223D

 30 33  0  0  1  0  0  0  0  0999 V2000
   14.9210   -5.4590   74.1440 S   0  0  0  0  0  0  0  0  0  0  0  0
   15.3900   -6.9260   73.2800 C   0  0  0  0  0  2  0  0  0  0  0  0
   14.1310   -7.6210   72.8240 C   0  0  0  0  0  0  0  0  0  0  0  0
   13.3010   -7.6400   69.2800 C   0  0  0  0  0  0  0  0  0  0  0  0
   12.2700   -8.3330   70.0520 N   0  0  0  0  0  0  0  0  0  0  0  0
   14.2740   -7.0530   70.3140 C   0  0  0  0  0  2  0  0  0  0  0  0
   12.6030   -8.2700   71.3480 C   0  0  2  0  0  3  0  0  0  0  0  0
   13.7280   -7.6340   71.5280 N   0  0  0  0  0  0  0  0  0  0  0  0
   11.9850   -9.0450   72.7460 S   0  0  0  0  0  0  0  0  0  0  0  0
   13.2780   -8.3520   73.6850 C   0  0  0  0  0  3  0  0  0  0  0  0
   12.6570   -6.5270   68.4640 C   0  0  0  0  0  1  0  0  0  0  0  0
   14.0360   -8.6400   68.3910 C   0  0  0  0  0  1  0  0  0  0  0  0
   11.3580   -7.8780   69.9030 H   0  0  0  0  0  0  0  0  0  0  0  0
   15.1750   -5.7090   75.7770 C   0  0  0  0  0  3  0  0  0  0  0  0
   14.6720   -4.7790   76.5950 N   0  0  0  0  0  0  0  0  0  0  0  0
   13.6560   -4.8280   76.4370 H   0  0  0  0  0  0  0  0  0  0  0  0
   14.9500   -3.3530   76.6730 C   0  0  0  0  0  3  0  0  0  0  0  0
   15.4540   -2.8720   78.0260 C   0  0  0  0  0  2  0  0  0  0  0  0
   13.9240   -2.3900   76.0990 C   0  0  0  0  0  2  0  0  0  0  0  0
   16.1690   -1.5330   77.8500 C   0  0  0  0  0  2  0  0  0  0  0  0
   14.5670   -1.0120   75.9180 C   0  0  0  0  0  2  0  0  0  0  0  0
   15.2870   -0.4850   77.1690 C   0  0  0  0  0  2  0  0  0  0  0  0
   15.8610   -6.7750   76.2140 N   0  0  0  0  0  0  0  0  0  0  0  0
   15.1720   -7.3410   76.7300 H   0  0  0  0  0  0  0  0  0  0  0  0
   17.0540   -6.7700   77.0610 C   0  0  0  0  0  3  0  0  0  0  0  0
   16.9310   -7.3830   78.4540 C   0  0  0  0  0  2  0  0  0  0  0  0
   18.2950   -7.3010   76.3520 C   0  0  0  0  0  2  0  0  0  0  0  0
   18.1780   -7.0830   79.2850 C   0  0  0  0  0  2  0  0  0  0  0  0
   19.5550   -6.9840   77.1560 C   0  0  0  0  0  2  0  0  0  0  0  0
   19.4670   -7.5150   78.5840 C   0  0  0  0  0  2  0  0  0  0  0  0
  1 14  1  0  0  0  0
  2  1  1  0  0  0  0
  3  2  1  0  0  0  0
  3 10  2  0  0  0  0
  4  5  1  0  0  0  0
  4  6  1  0  0  0  0
  5  7  1  0  0  0  0
  6  8  1  0  0  0  0
  7  8  1  0  0  0  0
  7  9  1  6  0  0  0
  8  3  1  0  0  0  0
  9 10  1  0  0  0  0
 11  4  1  0  0  0  0
 12  4  1  0  0  0  0
 13  5  1  0  0  0  0
 14 23  1  0  0  0  0
 14 15  1  0  0  0  0
 15 17  1  0  0  0  0
 16 15  1  0  0  0  0
 17 18  1  0  0  0  0
 19 17  1  0  0  0  0
 20 18  1  0  0  0  0
 21 19  1  0  0  0  0
 21 22  1  0  0  0  0
 22 20  1  0  0  0  0
 23 24  1  0  0  0  0
 23 25  1  0  0  0  0
 25 26  1  0  0  0  0
 26 28  1  0  0  0  0
 27 25  1  0  0  0  0
 27 29  1  0  0  0  0
 29 30  1  0  0  0  0
 30 28  1  0  0  0  0
M  END
>  <MODEL>
14

>  <REMARK>
 VINA RESULT:    -4.977      1.971      5.196
 INTER + INTRA:          -8.248
 INTER:                  -7.407
 INTRA:                  -0.841
 UNBOUND:                -1.235
 SMILES CC1(C)CN2[C@H](CSC(NC3CCCCC3)NC3CCCCC3)CS[C@@H]2N1
 SMILES IDX 8 1 7 2 6 3 2 4 27 5 4 6 26 7 5 8 25 9 24 10 1 11 3 12 9 14
 SMILES IDX 10 15 11 17 12 18 16 19 13 20 15 21 14 22 17 23 18 25 19 26
 SMILES IDX 23 27 20 28 22 29 21 30
 H PARENT 27 13 10 16 17 24

>  <TORSDO>
F 7

$$$$
D:\Codex\projectless-workspaces\2026-08-22\non\work\whynot17\analysis\dinp_crc_structural_pipeline\outputs\stage2_refine_and_rescue\cxcr4_refinement\it1t_s0.70_e64_seed590836.pdbqt
 OpenBabel09032623223D

 30 33  0  0  1  0  0  0  0  0999 V2000
   15.3150   -5.4280   74.2840 S   0  0  0  0  0  0  0  0  0  0  0  0
   15.1040   -7.0060   75.0470 C   0  0  0  0  0  2  0  0  0  0  0  0
   15.4710   -6.8720   76.5050 C   0  0  0  0  0  0  0  0  0  0  0  0
   12.8480   -6.2080   78.9400 C   0  0  0  0  0  0  0  0  0  0  0  0
   14.1520   -6.2750   79.5970 N   0  0  0  0  0  0  0  0  0  0  0  0
   13.1320   -6.3140   77.4330 C   0  0  0  0  0  2  0  0  0  0  0  0
   15.0850   -6.4870   78.6580 C   0  0  2  0  0  3  0  0  0  0  0  0
   14.5590   -6.5800   77.4670 N   0  0  0  0  0  0  0  0  0  0  0  0
   16.7490   -6.8870   78.7430 S   0  0  0  0  0  0  0  0  0  0  0  0
   16.7780   -7.0730   77.0110 C   0  0  0  0  0  3  0  0  0  0  0  0
   12.1880   -4.8750   79.2630 C   0  0  0  0  0  1  0  0  0  0  0  0
   11.9880   -7.3880   79.3850 C   0  0  0  0  0  1  0  0  0  0  0  0
   14.3430   -5.3880   80.0840 H   0  0  0  0  0  0  0  0  0  0  0  0
   13.8290   -4.9200   73.7100 C   0  0  0  0  0  3  0  0  0  0  0  0
   12.9570   -5.8880   73.4120 N   0  0  0  0  0  0  0  0  0  0  0  0
   13.0870   -6.5830   74.1600 H   0  0  0  0  0  0  0  0  0  0  0  0
   12.8260   -6.6890   72.2030 C   0  0  0  0  0  3  0  0  0  0  0  0
   12.1410   -5.9850   71.0410 C   0  0  0  0  0  2  0  0  0  0  0  0
   12.3340   -8.1210   72.3420 C   0  0  0  0  0  2  0  0  0  0  0  0
   12.5040   -6.6950   69.7380 C   0  0  0  0  0  2  0  0  0  0  0  0
   12.6450   -8.8900   71.0550 C   0  0  0  0  0  2  0  0  0  0  0  0
   12.1710   -8.1870   69.7730 C   0  0  0  0  0  2  0  0  0  0  0  0
   13.5600   -3.6170   73.5500 N   0  0  0  0  0  0  0  0  0  0  0  0
   14.2950   -3.2700   72.9160 H   0  0  0  0  0  0  0  0  0  0  0  0
   13.4580   -2.6010   74.5980 C   0  0  0  0  0  3  0  0  0  0  0  0
   13.2830   -3.0870   76.0350 C   0  0  0  0  0  2  0  0  0  0  0  0
   14.5570   -1.5470   74.5200 C   0  0  0  0  0  2  0  0  0  0  0  0
   12.9530   -1.9160   76.9610 C   0  0  0  0  0  2  0  0  0  0  0  0
   14.2290   -0.3550   75.4190 C   0  0  0  0  0  2  0  0  0  0  0  0
   13.9780   -0.7840   76.8620 C   0  0  0  0  0  2  0  0  0  0  0  0
  1  2  1  0  0  0  0
  2  3  1  0  0  0  0
  3 10  2  0  0  0  0
  3  8  1  0  0  0  0
  4 11  1  0  0  0  0
  4 12  1  0  0  0  0
  4  5  1  0  0  0  0
  5 13  1  0  0  0  0
  6  8  1  0  0  0  0
  6  4  1  0  0  0  0
  7  9  1  1  0  0  0
  7  5  1  0  0  0  0
  8  7  1  0  0  0  0
 10  9  1  0  0  0  0
 14  1  1  0  0  0  0
 15 14  1  0  0  0  0
 15 16  1  0  0  0  0
 17 19  1  0  0  0  0
 17 15  1  0  0  0  0
 18 17  1  0  0  0  0
 20 22  1  0  0  0  0
 20 18  1  0  0  0  0
 21 19  1  0  0  0  0
 22 21  1  0  0  0  0
 23 14  1  0  0  0  0
 23 25  1  0  0  0  0
 24 23  1  0  0  0  0
 25 26  1  0  0  0  0
 26 28  1  0  0  0  0
 27 25  1  0  0  0  0
 27 29  1  0  0  0  0
 29 30  1  0  0  0  0
 30 28  1  0  0  0  0
M  END
>  <MODEL>
15

>  <REMARK>
 VINA RESULT:    -4.966      2.152      6.258
 INTER + INTRA:          -8.233
 INTER:                  -7.149
 INTRA:                  -1.084
 UNBOUND:                -1.235
 SMILES CC1(C)CN2[C@H](CSC(NC3CCCCC3)NC3CCCCC3)CS[C@@H]2N1
 SMILES IDX 8 1 7 2 6 3 2 4 27 5 4 6 26 7 5 8 25 9 24 10 1 11 3 12 9 14
 SMILES IDX 10 15 11 17 12 18 16 19 13 20 15 21 14 22 17 23 18 25 19 26
 SMILES IDX 23 27 20 28 22 29 21 30
 H PARENT 27 13 10 16 17 24

>  <TORSDO>
F 7

$$$$
D:\Codex\projectless-workspaces\2026-08-22\non\work\whynot17\analysis\dinp_crc_structural_pipeline\outputs\stage2_refine_and_rescue\cxcr4_refinement\it1t_s0.70_e64_seed590836.pdbqt
 OpenBabel09032623223D

 30 33  0  0  1  0  0  0  0  0999 V2000
   14.3600   -4.3310   78.7050 S   0  0  0  0  0  0  0  0  0  0  0  0
   15.7390   -3.3060   78.3000 C   0  0  0  0  0  2  0  0  0  0  0  0
   15.2110   -2.0450   77.6590 C   0  0  0  0  0  0  0  0  0  0  0  0
   14.5180   -2.0300   74.0860 C   0  0  0  0  0  0  0  0  0  0  0  0
   14.2380   -0.7180   74.6680 N   0  0  0  0  0  0  0  0  0  0  0  0
   15.1340   -2.8670   75.2170 C   0  0  0  0  0  2  0  0  0  0  0  0
   14.5390   -0.7650   75.9730 C   0  0  2  0  0  3  0  0  0  0  0  0
   14.9710   -1.9440   76.3270 N   0  0  0  0  0  0  0  0  0  0  0  0
   14.2490    0.3140   77.2720 S   0  0  0  0  0  0  0  0  0  0  0  0
   14.8820   -0.8720   78.3800 C   0  0  0  0  0  3  0  0  0  0  0  0
   15.5100   -1.8720   72.9410 C   0  0  0  0  0  1  0  0  0  0  0  0
   13.2150   -2.6730   73.6200 C   0  0  0  0  0  1  0  0  0  0  0  0
   14.8120   -0.0000   74.2030 H   0  0  0  0  0  0  0  0  0  0  0  0
   14.4490   -5.7190   77.7770 C   0  0  0  0  0  3  0  0  0  0  0  0
   13.9070   -5.6410   76.5580 N   0  0  0  0  0  0  0  0  0  0  0  0
   12.9900   -5.2000   76.7180 H   0  0  0  0  0  0  0  0  0  0  0  0
   13.6310   -6.6920   75.5890 C   0  0  0  0  0  3  0  0  0  0  0  0
   14.3940   -6.5690   74.2780 C   0  0  0  0  0  2  0  0  0  0  0  0
   12.1810   -7.0770   75.3430 C   0  0  0  0  0  2  0  0  0  0  0  0
   14.4210   -7.9290   73.5820 C   0  0  0  0  0  2  0  0  0  0  0  0
   12.1310   -8.4270   74.6210 C   0  0  0  0  0  2  0  0  0  0  0  0
   13.0190   -8.5040   73.3700 C   0  0  0  0  0  2  0  0  0  0  0  0
   15.0160   -6.8340   78.2570 N   0  0  0  0  0  0  0  0  0  0  0  0
   14.7360   -6.8700   79.2480 H   0  0  0  0  0  0  0  0  0  0  0  0
   16.4410   -7.1700   78.2570 C   0  0  0  0  0  3  0  0  0  0  0  0
   17.2560   -6.7800   77.0270 C   0  0  0  0  0  2  0  0  0  0  0  0
   17.1580   -6.7400   79.5320 C   0  0  0  0  0  2  0  0  0  0  0  0
   18.6480   -7.4100   77.0830 C   0  0  0  0  0  2  0  0  0  0  0  0
   18.5410   -7.3840   79.6180 C   0  0  0  0  0  2  0  0  0  0  0  0
   19.3860   -7.0850   78.3840 C   0  0  0  0  0  2  0  0  0  0  0  0
  2  1  1  0  0  0  0
  3  2  1  0  0  0  0
  3 10  2  0  0  0  0
  4  5  1  0  0  0  0
  4  6  1  0  0  0  0
  5  7  1  0  0  0  0
  6  8  1  0  0  0  0
  7  8  1  0  0  0  0
  7  9  1  1  0  0  0
  8  3  1  0  0  0  0
  9 10  1  0  0  0  0
 11  4  1  0  0  0  0
 12  4  1  0  0  0  0
 13  5  1  0  0  0  0
 14 23  1  0  0  0  0
 14  1  1  0  0  0  0
 15 16  1  0  0  0  0
 15 14  1  0  0  0  0
 17 15  1  0  0  0  0
 18 17  1  0  0  0  0
 19 17  1  0  0  0  0
 20 18  1  0  0  0  0
 21 19  1  0  0  0  0
 22 20  1  0  0  0  0
 22 21  1  0  0  0  0
 23 25  1  0  0  0  0
 23 24  1  0  0  0  0
 25 27  1  0  0  0  0
 26 28  1  0  0  0  0
 26 25  1  0  0  0  0
 27 29  1  0  0  0  0
 28 30  1  0  0  0  0
 30 29  1  0  0  0  0
M  END
>  <MODEL>
16

>  <REMARK>
 VINA RESULT:    -4.952      2.003      6.163
 INTER + INTRA:          -8.214
 INTER:                  -6.891
 INTRA:                  -1.322
 UNBOUND:                -1.235
 SMILES CC1(C)CN2[C@H](CSC(NC3CCCCC3)NC3CCCCC3)CS[C@@H]2N1
 SMILES IDX 8 1 7 2 6 3 2 4 27 5 4 6 26 7 5 8 25 9 24 10 1 11 3 12 9 14
 SMILES IDX 10 15 11 17 12 18 16 19 13 20 15 21 14 22 17 23 18 25 19 26
 SMILES IDX 23 27 20 28 22 29 21 30
 H PARENT 27 13 10 16 17 24

>  <TORSDO>
F 7

$$$$
D:\Codex\projectless-workspaces\2026-08-22\non\work\whynot17\analysis\dinp_crc_structural_pipeline\outputs\stage2_refine_and_rescue\cxcr4_refinement\it1t_s0.70_e64_seed590836.pdbqt
 OpenBabel09032623223D

 30 33  0  0  1  0  0  0  0  0999 V2000
   14.5550   -5.1800   73.7460 S   0  0  0  0  0  0  0  0  0  0  0  0
   15.1530   -6.7790   73.2960 C   0  0  0  0  0  2  0  0  0  0  0  0
   13.9730   -7.6120   72.8580 C   0  0  0  0  0  0  0  0  0  0  0  0
   13.1360   -7.7790   69.3200 C   0  0  0  0  0  0  0  0  0  0  0  0
   12.1880   -8.5650   70.1090 N   0  0  0  0  0  0  0  0  0  0  0  0
   14.0450   -7.0740   70.3380 C   0  0  0  0  0  2  0  0  0  0  0  0
   12.5170   -8.4450   71.4020 C   0  0  2  0  0  3  0  0  0  0  0  0
   13.5690   -7.6900   71.5650 N   0  0  0  0  0  0  0  0  0  0  0  0
   11.9900   -9.2570   72.8160 S   0  0  0  0  0  0  0  0  0  0  0  0
   13.2060   -8.4150   73.7360 C   0  0  0  0  0  3  0  0  0  0  0  0
   12.3750   -6.7550   68.4890 C   0  0  0  0  0  1  0  0  0  0  0  0
   13.9700   -8.7110   68.4440 C   0  0  0  0  0  1  0  0  0  0  0  0
   11.2320   -8.2110   69.9580 H   0  0  0  0  0  0  0  0  0  0  0  0
   15.3730   -4.6820   75.1170 C   0  0  0  0  0  3  0  0  0  0  0  0
   15.5090   -3.3600   75.2670 N   0  0  0  0  0  0  0  0  0  0  0  0
   16.5140   -3.1940   75.1230 H   0  0  0  0  0  0  0  0  0  0  0  0
   15.1650   -2.5070   76.3940 C   0  0  0  0  0  3  0  0  0  0  0  0
   13.6790   -2.2220   76.5520 C   0  0  0  0  0  2  0  0  0  0  0  0
   15.9890   -1.2490   76.6190 C   0  0  0  0  0  2  0  0  0  0  0  0
   13.4000   -1.7740   77.9850 C   0  0  0  0  0  2  0  0  0  0  0  0
   15.7390   -0.7260   78.0360 C   0  0  0  0  0  2  0  0  0  0  0  0
   14.2540   -0.5740   78.3980 C   0  0  0  0  0  2  0  0  0  0  0  0
   15.8680   -5.5730   75.9870 N   0  0  0  0  0  0  0  0  0  0  0  0
   16.0620   -6.4140   75.4240 H   0  0  0  0  0  0  0  0  0  0  0  0
   15.2230   -6.0740   77.2010 C   0  0  0  0  0  3  0  0  0  0  0  0
   15.4480   -5.2910   78.4920 C   0  0  0  0  0  2  0  0  0  0  0  0
   13.7410   -6.3770   77.0110 C   0  0  0  0  0  2  0  0  0  0  0  0
   14.9140   -6.0710   79.6930 C   0  0  0  0  0  2  0  0  0  0  0  0
   13.1980   -7.1830   78.1910 C   0  0  0  0  0  2  0  0  0  0  0  0
   13.4500   -6.4810   79.5220 C   0  0  0  0  0  2  0  0  0  0  0  0
  1 14  1  0  0  0  0
  2  1  1  0  0  0  0
  3  2  1  0  0  0  0
  3 10  2  0  0  0  0
  4  5  1  0  0  0  0
  4  6  1  0  0  0  0
  5  7  1  0  0  0  0
  6  8  1  0  0  0  0
  7  8  1  0  0  0  0
  7  9  1  6  0  0  0
  8  3  1  0  0  0  0
  9 10  1  0  0  0  0
 11  4  1  0  0  0  0
 12  4  1  0  0  0  0
 13  5  1  0  0  0  0
 14 15  1  0  0  0  0
 14 23  1  0  0  0  0
 15 17  1  0  0  0  0
 16 15  1  0  0  0  0
 17 18  1  0  0  0  0
 17 19  1  0  0  0  0
 18 20  1  0  0  0  0
 19 21  1  0  0  0  0
 20 22  1  0  0  0  0
 21 22  1  0  0  0  0
 23 25  1  0  0  0  0
 24 23  1  0  0  0  0
 25 26  1  0  0  0  0
 26 28  1  0  0  0  0
 27 25  1  0  0  0  0
 27 29  1  0  0  0  0
 29 30  1  0  0  0  0
 30 28  1  0  0  0  0
M  END
>  <MODEL>
17

>  <REMARK>
 VINA RESULT:    -4.929      2.346      4.954
 INTER + INTRA:          -8.181
 INTER:                  -7.135
 INTRA:                  -1.046
 UNBOUND:                -1.235
 SMILES CC1(C)CN2[C@H](CSC(NC3CCCCC3)NC3CCCCC3)CS[C@@H]2N1
 SMILES IDX 8 1 7 2 6 3 2 4 27 5 4 6 26 7 5 8 25 9 24 10 1 11 3 12 9 14
 SMILES IDX 10 15 11 17 12 18 16 19 13 20 15 21 14 22 17 23 18 25 19 26
 SMILES IDX 23 27 20 28 22 29 21 30
 H PARENT 27 13 10 16 17 24

>  <TORSDO>
F 7

$$$$
D:\Codex\projectless-workspaces\2026-08-22\non\work\whynot17\analysis\dinp_crc_structural_pipeline\outputs\stage2_refine_and_rescue\cxcr4_refinement\it1t_s0.70_e64_seed590836.pdbqt
 OpenBabel09032623223D

 30 33  0  0  1  0  0  0  0  0999 V2000
   15.0470   -5.5640   73.8550 S   0  0  0  0  0  0  0  0  0  0  0  0
   14.6910   -7.1680   74.5020 C   0  0  0  0  0  2  0  0  0  0  0  0
   13.8990   -6.9920   75.7740 C   0  0  0  0  0  0  0  0  0  0  0  0
   15.5360   -5.5810   78.7030 C   0  0  0  0  0  0  0  0  0  0  0  0
   14.1460   -5.9180   79.0050 N   0  0  0  0  0  0  0  0  0  0  0  0
   15.7900   -6.0940   77.2770 C   0  0  0  0  0  2  0  0  0  0  0  0
   13.5980   -6.4630   77.9110 C   0  0  2  0  0  3  0  0  0  0  0  0
   14.4470   -6.5170   76.9210 N   0  0  0  0  0  0  0  0  0  0  0  0
   11.9850   -6.8660   77.4960 S   0  0  0  0  0  0  0  0  0  0  0  0
   12.5140   -7.2660   75.8850 C   0  0  0  0  0  3  0  0  0  0  0  0
   16.4530   -6.2860   79.6920 C   0  0  0  0  0  1  0  0  0  0  0  0
   15.7170   -4.0660   78.7440 C   0  0  0  0  0  1  0  0  0  0  0  0
   14.1120   -6.5920   79.7840 H   0  0  0  0  0  0  0  0  0  0  0  0
   13.6240   -4.9050   73.2770 C   0  0  0  0  0  3  0  0  0  0  0  0
   12.7310   -5.7750   72.7940 N   0  0  0  0  0  0  0  0  0  0  0  0
   12.5480   -6.4110   73.5820 H   0  0  0  0  0  0  0  0  0  0  0  0
   12.8160   -6.6570   71.6390 C   0  0  0  0  0  3  0  0  0  0  0  0
   12.3960   -6.0260   70.3200 C   0  0  0  0  0  2  0  0  0  0  0  0
   12.2610   -8.0660   71.7710 C   0  0  0  0  0  2  0  0  0  0  0  0
   12.9870   -6.8320   69.1650 C   0  0  0  0  0  2  0  0  0  0  0  0
   12.7940   -8.9300   70.6250 C   0  0  0  0  0  2  0  0  0  0  0  0
   12.6060   -8.3120   69.2310 C   0  0  0  0  0  2  0  0  0  0  0  0
   13.4220   -3.5800   73.2890 N   0  0  0  0  0  0  0  0  0  0  0  0
   14.1940   -3.1890   72.7310 H   0  0  0  0  0  0  0  0  0  0  0  0
   13.3300   -2.7120   74.4640 C   0  0  0  0  0  3  0  0  0  0  0  0
   12.9350   -3.3600   75.7890 C   0  0  0  0  0  2  0  0  0  0  0  0
   14.5530   -1.8210   74.6480 C   0  0  0  0  0  2  0  0  0  0  0  0
   12.6520   -2.2920   76.8450 C   0  0  0  0  0  2  0  0  0  0  0  0
   14.2770   -0.7290   75.6810 C   0  0  0  0  0  2  0  0  0  0  0  0
   13.8140   -1.3110   77.0130 C   0  0  0  0  0  2  0  0  0  0  0  0
  1  2  1  0  0  0  0
  2  3  1  0  0  0  0
  3 10  2  0  0  0  0
  3  8  1  0  0  0  0
  4 12  1  0  0  0  0
  4  5  1  0  0  0  0
  4 11  1  0  0  0  0
  5 13  1  0  0  0  0
  6  4  1  0  0  0  0
  7  9  1  6  0  0  0
  7  5  1  0  0  0  0
  8  6  1  0  0  0  0
  8  7  1  0  0  0  0
 10  9  1  0  0  0  0
 14 23  1  0  0  0  0
 14  1  1  0  0  0  0
 15 14  1  0  0  0  0
 15 16  1  0  0  0  0
 17 19  1  0  0  0  0
 17 15  1  0  0  0  0
 18 17  1  0  0  0  0
 20 22  1  0  0  0  0
 20 18  1  0  0  0  0
 21 19  1  0  0  0  0
 22 21  1  0  0  0  0
 23 25  1  0  0  0  0
 24 23  1  0  0  0  0
 25 27  1  0  0  0  0
 25 26  1  0  0  0  0
 26 28  1  0  0  0  0
 27 29  1  0  0  0  0
 28 30  1  0  0  0  0
 29 30  1  0  0  0  0
M  END
>  <MODEL>
18

>  <REMARK>
 VINA RESULT:    -4.890      1.991      6.230
 INTER + INTRA:          -8.125
 INTER:                  -7.043
 INTRA:                  -1.083
 UNBOUND:                -1.235
 SMILES CC1(C)CN2[C@H](CSC(NC3CCCCC3)NC3CCCCC3)CS[C@@H]2N1
 SMILES IDX 8 1 7 2 6 3 2 4 27 5 4 6 26 7 5 8 25 9 24 10 1 11 3 12 9 14
 SMILES IDX 10 15 11 17 12 18 16 19 13 20 15 21 14 22 17 23 18 25 19 26
 SMILES IDX 23 27 20 28 22 29 21 30
 H PARENT 27 13 10 16 17 24

>  <TORSDO>
F 7

$$$$
D:\Codex\projectless-workspaces\2026-08-22\non\work\whynot17\analysis\dinp_crc_structural_pipeline\outputs\stage2_refine_and_rescue\cxcr4_refinement\it1t_s0.70_e64_seed590836.pdbqt
 OpenBabel09032623223D

 30 33  0  0  1  0  0  0  0  0999 V2000
   14.7250   -3.9990   74.0780 S   0  0  0  0  0  0  0  0  0  0  0  0
   12.9990   -4.3220   73.8980 C   0  0  0  0  0  2  0  0  0  0  0  0
   12.8040   -5.8190   73.8770 C   0  0  0  0  0  0  0  0  0  0  0  0
   13.1540   -7.6080   70.7270 C   0  0  0  0  0  0  0  0  0  0  0  0
   12.8030   -8.5320   71.8050 N   0  0  0  0  0  0  0  0  0  0  0  0
   13.1010   -6.2030   71.3460 C   0  0  0  0  0  2  0  0  0  0  0  0
   12.6530   -7.8230   72.9320 C   0  0  2  0  0  3  0  0  0  0  0  0
   12.8720   -6.5520   72.7370 N   0  0  0  0  0  0  0  0  0  0  0  0
   12.4740   -8.2770   74.5750 S   0  0  0  0  0  0  0  0  0  0  0  0
   12.5730   -6.6000   75.0350 C   0  0  0  0  0  3  0  0  0  0  0  0
   12.1340   -7.7330   69.6040 C   0  0  0  0  0  1  0  0  0  0  0  0
   14.5710   -7.9030   70.2400 C   0  0  0  0  0  1  0  0  0  0  0  0
   11.9230   -9.0150   71.5770 H   0  0  0  0  0  0  0  0  0  0  0  0
   14.9340   -2.9890   75.3950 C   0  0  0  0  0  3  0  0  0  0  0  0
   15.6000   -3.5110   76.4300 N   0  0  0  0  0  0  0  0  0  0  0  0
   16.4470   -3.9140   76.0060 H   0  0  0  0  0  0  0  0  0  0  0  0
   15.1820   -4.5070   77.4050 C   0  0  0  0  0  3  0  0  0  0  0  0
   15.6500   -5.9250   77.1120 C   0  0  0  0  0  2  0  0  0  0  0  0
   13.7340   -4.4940   77.8660 C   0  0  0  0  0  2  0  0  0  0  0  0
   15.5990   -6.7480   78.3970 C   0  0  0  0  0  2  0  0  0  0  0  0
   13.6020   -5.3260   79.1460 C   0  0  0  0  0  2  0  0  0  0  0  0
   14.2150   -6.7310   79.0470 C   0  0  0  0  0  2  0  0  0  0  0  0
   14.4380   -1.7450   75.3960 N   0  0  0  0  0  0  0  0  0  0  0  0
   14.9290   -1.2630   74.6290 H   0  0  0  0  0  0  0  0  0  0  0  0
   14.4470   -0.7910   76.5060 C   0  0  0  0  0  3  0  0  0  0  0  0
   13.4250   -0.9990   77.6210 C   0  0  0  0  0  2  0  0  0  0  0  0
   15.8370   -0.5640   77.0900 C   0  0  0  0  0  2  0  0  0  0  0  0
   13.4080    0.2040   78.5640 C   0  0  0  0  0  2  0  0  0  0  0  0
   15.8440    0.6530   78.0140 C   0  0  0  0  0  2  0  0  0  0  0  0
   14.7960    0.5350   79.1160 C   0  0  0  0  0  2  0  0  0  0  0  0
  1 14  1  0  0  0  0
  2  1  1  0  0  0  0
  3  2  1  0  0  0  0
  3 10  2  0  0  0  0
  4  6  1  0  0  0  0
  4  5  1  0  0  0  0
  5  7  1  0  0  0  0
  6  8  1  0  0  0  0
  7  9  1  1  0  0  0
  8  7  1  0  0  0  0
  8  3  1  0  0  0  0
  9 10  1  0  0  0  0
 11  4  1  0  0  0  0
 12  4  1  0  0  0  0
 13  5  1  0  0  0  0
 14 23  1  0  0  0  0
 14 15  1  0  0  0  0
 15 17  1  0  0  0  0
 16 15  1  0  0  0  0
 17 19  1  0  0  0  0
 18 17  1  0  0  0  0
 18 20  1  0  0  0  0
 19 21  1  0  0  0  0
 20 22  1  0  0  0  0
 22 21  1  0  0  0  0
 23 25  1  0  0  0  0
 24 23  1  0  0  0  0
 25 27  1  0  0  0  0
 25 26  1  0  0  0  0
 26 28  1  0  0  0  0
 27 29  1  0  0  0  0
 28 30  1  0  0  0  0
 29 30  1  0  0  0  0
M  END
>  <MODEL>
19

>  <REMARK>
 VINA RESULT:    -2.849      2.090      3.358
 INTER + INTRA:          -5.249
 INTER:                  -4.499
 INTRA:                  -0.750
 UNBOUND:                -1.235
 SMILES CC1(C)CN2[C@H](CSC(NC3CCCCC3)NC3CCCCC3)CS[C@@H]2N1
 SMILES IDX 8 1 7 2 6 3 2 4 27 5 4 6 26 7 5 8 25 9 24 10 1 11 3 12 9 14
 SMILES IDX 10 15 11 17 12 18 16 19 13 20 15 21 14 22 17 23 18 25 19 26
 SMILES IDX 23 27 20 28 22 29 21 30
 H PARENT 27 13 10 16 17 24

>  <TORSDO>
F 7

$$$$
