590836
     RDKit          3D

 72 72  0  0  0  0  0  0  0  0999 V2000
    0.6575    0.8303    3.3531 O   0  0  0  0  0  0  0  0  0  0  0  0
   -2.2847   -0.9686    3.7127 O   0  0  0  0  0  0  0  0  0  0  0  0
    1.9319    1.9280    4.9310 O   0  0  0  0  0  0  0  0  0  0  0  0
   -0.2957   -1.5181    4.7560 O   0  0  0  0  0  0  0  0  0  0  0  0
    2.5417    0.7963   -3.1735 C   0  0  0  0  0  0  0  0  0  0  0  0
   -1.4830   -0.0648   -2.3063 C   0  0  0  0  0  0  0  0  0  0  0  0
    3.3455    1.2311   -1.9320 C   0  0  0  0  0  0  0  0  0  0  0  0
   -2.6418    0.5053   -1.4549 C   0  0  0  0  0  0  0  0  0  0  0  0
    3.3797    0.6492   -4.4651 C   0  0  0  0  0  0  0  0  0  0  0  0
   -1.8849   -0.3692   -3.7695 C   0  0  0  0  0  0  0  0  0  0  0  0
    2.4538    1.3784   -0.6880 C   0  0  0  0  0  0  0  0  0  0  0  0
   -3.3044   -0.5394   -0.5367 C   0  0  0  0  0  0  0  0  0  0  0  0
    2.1338    0.0234   -0.0332 C   0  0  0  0  0  0  0  0  0  0  0  0
   -2.4652   -0.8223    0.7163 C   0  0  0  0  0  0  0  0  0  0  0  0
    1.1057    0.1480    1.0991 C   0  0  0  0  0  0  0  0  0  0  0  0
   -3.1535   -1.8438    1.6319 C   0  0  0  0  0  0  0  0  0  0  0  0
    4.0150    1.9735   -4.9093 C   0  0  0  0  0  0  0  0  0  0  0  0
    4.4377   -0.4569   -4.3540 C   0  0  0  0  0  0  0  0  0  0  0  0
   -0.6409   -0.7079   -4.6007 C   0  0  0  0  0  0  0  0  0  0  0  0
   -2.9016   -1.5156   -3.8607 C   0  0  0  0  0  0  0  0  0  0  0  0
    1.6613    0.8371    2.3457 C   0  0  0  0  0  0  0  0  0  0  0  0
   -2.3097   -2.1227    2.8759 C   0  0  0  0  0  0  0  0  0  0  0  0
    0.8317    1.3934    4.6206 C   0  0  0  0  0  0  0  0  0  0  0  0
   -1.2771   -0.7321    4.6518 C   0  0  0  0  0  0  0  0  0  0  0  0
   -0.3015    1.4115    5.5767 C   0  0  0  0  0  0  0  0  0  0  0  0
   -1.3516    0.4587    5.5140 C   0  0  0  0  0  0  0  0  0  0  0  0
   -0.3845    2.4557    6.5168 C   0  0  0  0  0  0  0  0  0  0  0  0
   -2.4777    0.6113    6.3375 C   0  0  0  0  0  0  0  0  0  0  0  0
   -1.5002    2.5778    7.3479 C   0  0  0  0  0  0  0  0  0  0  0  0
   -2.5499    1.6651    7.2498 C   0  0  0  0  0  0  0  0  0  0  0  0
    2.0427   -0.1752   -2.9747 H   0  0  0  0  0  0  0  0  0  0  0  0
    1.7372    1.5416   -3.3585 H   0  0  0  0  0  0  0  0  0  0  0  0
   -0.6731    0.6981   -2.3215 H   0  0  0  0  0  0  0  0  0  0  0  0
   -1.0463   -0.9738   -1.8396 H   0  0  0  0  0  0  0  0  0  0  0  0
    4.1609    0.5084   -1.7175 H   0  0  0  0  0  0  0  0  0  0  0  0
    3.8105    2.2196   -2.1304 H   0  0  0  0  0  0  0  0  0  0  0  0
   -2.2596    1.3437   -0.8313 H   0  0  0  0  0  0  0  0  0  0  0  0
   -3.4196    0.9482   -2.1144 H   0  0  0  0  0  0  0  0  0  0  0  0
    2.6732    0.3426   -5.2686 H   0  0  0  0  0  0  0  0  0  0  0  0
   -2.3443    0.5411   -4.2150 H   0  0  0  0  0  0  0  0  0  0  0  0
    1.5141    1.9092   -0.9571 H   0  0  0  0  0  0  0  0  0  0  0  0
    2.9972    2.0100    0.0467 H   0  0  0  0  0  0  0  0  0  0  0  0
   -4.2942   -0.1450   -0.2183 H   0  0  0  0  0  0  0  0  0  0  0  0
   -3.4816   -1.4860   -1.0886 H   0  0  0  0  0  0  0  0  0  0  0  0
    3.0676   -0.4399    0.3540 H   0  0  0  0  0  0  0  0  0  0  0  0
    1.7076   -0.6659   -0.7914 H   0  0  0  0  0  0  0  0  0  0  0  0
   -1.4754   -1.2234    0.4147 H   0  0  0  0  0  0  0  0  0  0  0  0
   -2.3078    0.1263    1.2752 H   0  0  0  0  0  0  0  0  0  0  0  0
    0.7784   -0.8752    1.3859 H   0  0  0  0  0  0  0  0  0  0  0  0
    0.2111    0.6997    0.7363 H   0  0  0  0  0  0  0  0  0  0  0  0
   -3.2968   -2.7968    1.0771 H   0  0  0  0  0  0  0  0  0  0  0  0
   -4.1524   -1.4664    1.9422 H   0  0  0  0  0  0  0  0  0  0  0  0
    4.4451    1.8619   -5.9275 H   0  0  0  0  0  0  0  0  0  0  0  0
    3.2485    2.7767   -4.9443 H   0  0  0  0  0  0  0  0  0  0  0  0
    4.8307    2.2788   -4.2208 H   0  0  0  0  0  0  0  0  0  0  0  0
    4.8864   -0.6504   -5.3517 H   0  0  0  0  0  0  0  0  0  0  0  0
    3.9735   -1.4002   -3.9953 H   0  0  0  0  0  0  0  0  0  0  0  0
    5.2523   -0.1654   -3.6585 H   0  0  0  0  0  0  0  0  0  0  0  0
    0.0486    0.1610   -4.6246 H   0  0  0  0  0  0  0  0  0  0  0  0
   -0.1071   -1.5834   -4.1718 H   0  0  0  0  0  0  0  0  0  0  0  0
   -0.9260   -0.9389   -5.6493 H   0  0  0  0  0  0  0  0  0  0  0  0
   -3.1066   -1.7663   -4.9234 H   0  0  0  0  0  0  0  0  0  0  0  0
   -2.5172   -2.4233   -3.3478 H   0  0  0  0  0  0  0  0  0  0  0  0
   -3.8664   -1.2146   -3.4031 H   0  0  0  0  0  0  0  0  0  0  0  0
    2.5585    0.2918    2.7117 H   0  0  0  0  0  0  0  0  0  0  0  0
    1.9356    1.8879    2.1137 H   0  0  0  0  0  0  0  0  0  0  0  0
   -2.7494   -2.9709    3.4426 H   0  0  0  0  0  0  0  0  0  0  0  0
   -1.2800   -2.4059    2.5629 H   0  0  0  0  0  0  0  0  0  0  0  0
    0.4002    3.1990    6.5868 H   0  0  0  0  0  0  0  0  0  0  0  0
   -3.2895   -0.1050    6.2939 H   0  0  0  0  0  0  0  0  0  0  0  0
   -1.5575    3.3918    8.0591 H   0  0  0  0  0  0  0  0  0  0  0  0
   -3.4167    1.7677    7.8899 H   0  0  0  0  0  0  0  0  0  0  0  0
  1 21  1  0
  1 23  1  0
  2 22  1  0
  2 24  1  0
  3 23  2  0
  4 24  2  0
  5  7  1  0
  5  9  1  0
  5 31  1  0
  5 32  1  0
  6  8  1  0
  6 10  1  0
  6 33  1  0
  6 34  1  0
  7 11  1  0
  7 35  1  0
  7 36  1  0
  8 12  1  0
  8 37  1  0
  8 38  1  0
  9 17  1  0
  9 18  1  0
  9 39  1  0
 10 19  1  0
 10 20  1  0
 10 40  1  0
 11 13  1  0
 11 41  1  0
 11 42  1  0
 12 14  1  0
 12 43  1  0
 12 44  1  0
 13 15  1  0
 13 45  1  0
 13 46  1  0
 14 16  1  0
 14 47  1  0
 14 48  1  0
 15 21  1  0
 15 49  1  0
 15 50  1  0
 16 22  1  0
 16 51  1  0
 16 52  1  0
 17 53  1  0
 17 54  1  0
 17 55  1  0
 18 56  1  0
 18 57  1  0
 18 58  1  0
 19 59  1  0
 19 60  1  0
 19 61  1  0
 20 62  1  0
 20 63  1  0
 20 64  1  0
 21 65  1  0
 21 66  1  0
 22 67  1  0
 22 68  1  0
 23 25  1  0
 24 26  1  0
 25 26  1  0
 25 27  2  0
 26 28  2  0
 27 29  1  0
 27 69  1  0
 28 30  1  0
 28 70  1  0
 29 30  2  0
 29 71  1  0
 30 72  1  0
M  END
>  <PUBCHEM_COMPOUND_CID>  (1) 
590836

>  <PUBCHEM_COMPOUND_CANONICALIZED>  (1) 
1

>  <PUBCHEM_CACTVS_COMPLEXITY>  (1) 
416

>  <PUBCHEM_CACTVS_HBOND_ACCEPTOR>  (1) 
4

>  <PUBCHEM_CACTVS_HBOND_DONOR>  (1) 
0

>  <PUBCHEM_CACTVS_ROTATABLE_BOND>  (1) 
18

>  <PUBCHEM_CACTVS_SUBSKEYS>  (1) 
AAADcfB4OAAAAAAAAAAAAAAAAAAAAAAAAAAwAAAAAAAAAAABAAAAGgAAAAAADQCgmAIyCIAABACIAiDSCAACAAAkAAAIiAEACMgIJjKANRiCMQAkwAEIqYfLyOCOgAAAAAAQAAAAAAAAACAAAAAAAAAAAA==

>  <PUBCHEM_IUPAC_OPENEYE_NAME>  (1) 
bis(7-methyloctyl) benzene-1,2-dicarboxylate

>  <PUBCHEM_IUPAC_CAS_NAME>  (1) 
benzene-1,2-dicarboxylic acid bis(7-methyloctyl) ester

>  <PUBCHEM_IUPAC_NAME_MARKUP>  (1) 
bis(7-methyloctyl) benzene-1,2-dicarboxylate

>  <PUBCHEM_IUPAC_NAME>  (1) 
bis(7-methyloctyl) benzene-1,2-dicarboxylate

>  <PUBCHEM_IUPAC_SYSTEMATIC_NAME>  (1) 
bis(7-methyloctyl) benzene-1,2-dicarboxylate

>  <PUBCHEM_IUPAC_TRADITIONAL_NAME>  (1) 
benzene-1,2-dicarboxylic acid bis(7-methyloctyl) ester

>  <PUBCHEM_IUPAC_INCHI>  (1) 
InChI=1S/C26H42O4/c1-21(2)15-9-5-7-13-19-29-25(27)23-17-11-12-18-24(23)26(28)30-20-14-8-6-10-16-22(3)4/h11-12,17-18,21-22H,5-10,13-16,19-20H2,1-4H3

>  <PUBCHEM_IUPAC_INCHIKEY>  (1) 
HBGGXOJOCNVPFY-UHFFFAOYSA-N

>  <PUBCHEM_XLOGP3>  (1) 
9.6

>  <PUBCHEM_EXACT_MASS>  (1) 
418.30830982

>  <PUBCHEM_MOLECULAR_FORMULA>  (1) 
C26H42O4

>  <PUBCHEM_MOLECULAR_WEIGHT>  (1) 
418.6

>  <PUBCHEM_SMILES>  (1) 
CC(C)CCCCCCOC(=O)C1=CC=CC=C1C(=O)OCCCCCCC(C)C

>  <PUBCHEM_CONNECTIVITY_SMILES>  (1) 
CC(C)CCCCCCOC(=O)C1=CC=CC=C1C(=O)OCCCCCCC(C)C

>  <PUBCHEM_CACTVS_TPSA>  (1) 
52.6

>  <PUBCHEM_MONOISOTOPIC_WEIGHT>  (1) 
418.30830982

>  <PUBCHEM_TOTAL_CHARGE>  (1) 
0

>  <PUBCHEM_HEAVY_ATOM_COUNT>  (1) 
30

>  <PUBCHEM_ATOM_DEF_STEREO_COUNT>  (1) 
0

>  <PUBCHEM_ATOM_UDEF_STEREO_COUNT>  (1) 
0

>  <PUBCHEM_BOND_DEF_STEREO_COUNT>  (1) 
0

>  <PUBCHEM_BOND_UDEF_STEREO_COUNT>  (1) 
0

>  <PUBCHEM_ISOTOPIC_ATOM_COUNT>  (1) 
0

>  <PUBCHEM_COMPONENT_COUNT>  (1) 
1

>  <PUBCHEM_CACTVS_TAUTO_COUNT>  (1) 
-1

>  <PUBCHEM_COORDINATE_TYPE>  (1) 
1
5
255

>  <PUBCHEM_BONDANNOTATIONS>  (1) 
25  26  8
25  27  8
26  28  8
27  29  8
28  30  8
29  30  8

>  <PUBCHEM_CID>  (1) 
590836

>  <CAS>  (1) 
28553-12-0; 68515-48-0

>  <CONFORMER_METHOD>  (1) 
RDKit ETKDGv3 + UFF; representative single conformer

>  <CONFORMER_SCREEN_LOWEST_UFF_ENERGY>  (1) 
45.318415

>  <ISOMER_SCOPE>  (1) 
representative PubChem bis(7-methyloctyl) phthalate; DINP commercial mixture not fully represented

$$$$
