BRL
     RDKit          3D

 44 46  0  0  1  0  0  0  0  0999 V2000
   58.1500   32.5980    4.8550 S   0  0  0  0  0  0  0  0  0  0  0  0
   59.6280   34.6520    5.0200 O   0  0  0  0  0  0  0  0  0  0  0  0
   54.8450   34.2770    5.2760 O   0  0  0  0  0  0  0  0  0  0  0  0
   56.7400   26.1470    6.3010 O   0  0  0  0  0  0  0  0  0  0  0  0
   57.2610   34.9590    5.0900 N   0  0  0  0  0  0  0  0  0  0  0  0
   57.8820   24.0380    4.5350 N   0  0  0  0  0  0  0  0  0  0  0  0
   59.3050   23.8420    2.6060 N   0  0  0  0  0  0  0  0  0  0  0  0
   58.5210   34.1760    4.9940 C   0  0  0  0  0  0  0  0  0  0  0  0
   56.0180   33.9450    5.1840 C   0  0  0  0  0  0  0  0  0  0  0  0
   56.5500   32.4820    5.1440 C   0  0  2  0  0  0  0  0  0  0  0  0
   56.3120   31.8630    6.5340 C   0  0  0  0  0  0  0  0  0  0  0  0
   56.4130   30.3240    6.4630 C   0  0  0  0  0  0  0  0  0  0  0  0
   55.4080   29.5640    5.8110 C   0  0  0  0  0  0  0  0  0  0  0  0
   55.5160   28.1740    5.7520 C   0  0  0  0  0  0  0  0  0  0  0  0
   56.6110   27.5370    6.3370 C   0  0  0  0  0  0  0  0  0  0  0  0
   57.6000   28.2910    6.9840 C   0  0  0  0  0  0  0  0  0  0  0  0
   57.4910   29.6890    7.0410 C   0  0  0  0  0  0  0  0  0  0  0  0
   55.9860   25.4900    5.2810 C   0  0  0  0  0  0  0  0  0  0  0  0
   56.5170   24.0500    5.1360 C   0  0  0  0  0  0  0  0  0  0  0  0
   59.0150   24.0800    5.3580 C   0  0  0  0  0  0  0  0  0  0  0  0
   58.0490   23.9790    3.1230 C   0  0  0  0  0  0  0  0  0  0  0  0
   59.5000   23.7830    1.2740 C   0  0  0  0  0  0  0  0  0  0  0  0
   58.3760   23.8670    0.3850 C   0  0  0  0  0  0  0  0  0  0  0  0
   57.0780   24.0100    0.8980 C   0  0  0  0  0  0  0  0  0  0  0  0
   56.9050   24.0660    2.2740 C   0  0  0  0  0  0  0  0  0  0  0  0
   -0.3960    0.3970    7.2170 H   0  0  0  0  0  0  0  0  0  0  0  0
    1.3560   -0.9720    3.9390 H   0  0  0  0  0  0  0  0  0  0  0  0
    2.0400    1.3810    3.4020 H   0  0  0  0  0  0  0  0  0  0  0  0
    0.3310    1.8770    3.4550 H   0  0  0  0  0  0  0  0  0  0  0  0
   -1.2150    1.1940    1.7160 H   0  0  0  0  0  0  0  0  0  0  0  0
   -1.4890    0.5160   -0.6340 H   0  0  0  0  0  0  0  0  0  0  0  0
    2.6100   -0.6800   -0.7590 H   0  0  0  0  0  0  0  0  0  0  0  0
    2.8780    0.0040    1.5890 H   0  0  0  0  0  0  0  0  0  0  0  0
    1.9520   -1.8430   -1.9620 H   0  0  0  0  0  0  0  0  0  0  0  0
    2.4110   -0.2050   -2.4870 H   0  0  0  0  0  0  0  0  0  0  0  0
    0.8140   -2.2210   -4.1320 H   0  0  0  0  0  0  0  0  0  0  0  0
    2.5300   -1.8120   -4.3730 H   0  0  0  0  0  0  0  0  0  0  0  0
    3.1890    0.2090   -5.1680 H   0  0  0  0  0  0  0  0  0  0  0  0
    2.1140    0.5550   -6.5430 H   0  0  0  0  0  0  0  0  0  0  0  0
    2.0700    1.5910   -5.0960 H   0  0  0  0  0  0  0  0  0  0  0  0
   -3.1070   -1.2530   -4.3140 H   0  0  0  0  0  0  0  0  0  0  0  0
   -3.8670    0.6360   -5.6900 H   0  0  0  0  0  0  0  0  0  0  0  0
   -2.1850    2.1490   -6.7210 H   0  0  0  0  0  0  0  0  0  0  0  0
    0.2230    1.6990   -6.3250 H   0  0  0  0  0  0  0  0  0  0  0  0
  1  8  1  0
  1 10  1  0
  2  8  2  0
  3  9  2  0
  4 15  1  0
  4 18  1  0
  5  8  1  0
  5  9  1  0
  5 26  1  0
  6 19  1  0
  6 20  1  0
  6 21  1  0
  7 21  1  0
  7 22  2  0
  9 10  1  0
 10 11  1  0
 10 27  1  6
 11 12  1  0
 11 28  1  0
 11 29  1  0
 12 13  1  0
 12 17  2  0
 13 14  2  0
 13 30  1  0
 14 15  1  0
 14 31  1  0
 15 16  2  0
 16 17  1  0
 16 32  1  0
 17 33  1  0
 18 19  1  0
 18 34  1  0
 18 35  1  0
 19 36  1  0
 19 37  1  0
 20 38  1  0
 20 39  1  0
 20 40  1  0
 21 25  2  0
 22 23  1  0
 22 41  1  0
 23 24  2  0
 23 42  1  0
 24 25  1  0
 24 43  1  0
 25 44  1  0
M  END
$$$$
