BRL
  CCTOOLS-0919241034

 44 46  0  0  1  0  0  0  0  0999 V2000
   -1.0690   -0.6160    4.0210 S   0  0  0  0  0
   -2.6120   -0.4290    6.2430 O   0  0  0  0  0
    1.7720    0.6690    6.1380 O   0  0  0  0  0
    0.3940   -0.4970   -2.1440 O   0  0  0  0  0
   -0.3830    0.1530    6.2780 N   0  0  0  0  0
    1.1740   -0.2910   -4.8710 N   0  0  0  0  0
   -1.0940   -0.8130   -4.5740 N   0  0  0  0  0
   -1.5250   -0.2870    5.7170 C   0  0  0  0  0
    0.7550    0.2700    5.6140 C   0  0  0  0  0
    0.6970   -0.1290    4.1470 C   0  0  0  0  0
    1.0130    1.0560    3.2330 C   0  0  0  0  0
    0.8470    0.6400    1.7940 C   0  0  0  0  0
   -0.3780    0.7840    1.1710 C   0  0  0  0  0
   -0.5320    0.4030   -0.1470 C   0  0  0  0  0
    0.5440   -0.1220   -0.8460 C   0  0  0  0  0
    1.7710   -0.2700   -0.2170 C   0  0  0  0  0
    1.9220    0.1160    1.1000 C   0  0  0  0  0
    1.6620   -0.9920   -2.5790 C   0  0  0  0  0
    1.5630   -1.4340   -4.0410 C   0  0  0  0  0
    2.2030    0.5710   -5.4570 C   0  0  0  0  0
   -0.1700   -0.0260   -5.1020 C   0  0  0  0  0
   -2.3810   -0.5930   -4.7640 C   0  0  0  0  0
   -2.8120    0.4670   -5.5360 C   0  0  0  0  0
   -1.8740    1.3130   -6.1130 C   0  0  0  0  0
   -0.5320    1.0600   -5.8910 C   0  0  0  0  0
   -0.3960    0.3970    7.2170 H   0  0  0  0  0
    1.3560   -0.9720    3.9390 H   0  0  0  0  0
    2.0400    1.3810    3.4020 H   0  0  0  0  0
    0.3310    1.8770    3.4550 H   0  0  0  0  0
   -1.2150    1.1940    1.7160 H   0  0  0  0  0
   -1.4890    0.5160   -0.6340 H   0  0  0  0  0
    2.6100   -0.6800   -0.7590 H   0  0  0  0  0
    2.8780    0.0040    1.5890 H   0  0  0  0  0
    1.9520   -1.8430   -1.9620 H   0  0  0  0  0
    2.4110   -0.2050   -2.4870 H   0  0  0  0  0
    0.8140   -2.2210   -4.1320 H   0  0  0  0  0
    2.5300   -1.8120   -4.3730 H   0  0  0  0  0
    3.1890    0.2090   -5.1680 H   0  0  0  0  0
    2.1140    0.5550   -6.5430 H   0  0  0  0  0
    2.0700    1.5910   -5.0960 H   0  0  0  0  0
   -3.1070   -1.2530   -4.3140 H   0  0  0  0  0
   -3.8670    0.6360   -5.6900 H   0  0  0  0  0
   -2.1850    2.1490   -6.7210 H   0  0  0  0  0
    0.2230    1.6990   -6.3250 H   0  0  0  0  0
  1  8  1  0  0  0
  1 10  1  0  0  0
  2  8  2  0  0  0
  3  9  2  0  0  0
  4 15  1  0  0  0
  4 18  1  0  0  0
  5  8  1  0  0  0
  5  9  1  0  0  0
  5 26  1  0  0  0
  6 19  1  0  0  0
  6 20  1  0  0  0
  6 21  1  0  0  0
  7 21  2  0  0  0
  7 22  1  0  0  0
  9 10  1  0  0  0
 10 11  1  0  0  0
 10 27  1  0  0  0
 11 12  1  0  0  0
 11 28  1  0  0  0
 11 29  1  0  0  0
 12 13  2  0  0  0
 12 17  1  0  0  0
 13 14  1  0  0  0
 13 30  1  0  0  0
 14 15  2  0  0  0
 14 31  1  0  0  0
 15 16  1  0  0  0
 16 17  2  0  0  0
 16 32  1  0  0  0
 17 33  1  0  0  0
 18 19  1  0  0  0
 18 34  1  0  0  0
 18 35  1  0  0  0
 19 36  1  0  0  0
 19 37  1  0  0  0
 20 38  1  0  0  0
 20 39  1  0  0  0
 20 40  1  0  0  0
 21 25  1  0  0  0
 22 23  2  0  0  0
 22 41  1  0  0  0
 23 24  1  0  0  0
 23 42  1  0  0  0
 24 25  2  0  0  0
 24 43  1  0  0  0
 25 44  1  0  0  0
M  END
$$$$
