IT1t_crystal_ITD
     RDKit          3D

 67 70  0  0  0  0  0  0  0  0999 V2000
   16.2630   -6.2800   67.1020 C   0  0  0  0  0  0  0  0  0  0  0  0
   17.9260   -7.9840   67.6150 N   0  0  0  0  0  0  0  0  0  0  0  0
   18.8530   -9.8430   69.4940 S   0  0  0  0  0  0  0  0  0  0  0  0
   17.6610   -6.5460   67.6430 C   0  0  1  0  0  0  0  0  0  0  0  0
   18.2090   -7.3820   69.7010 N   0  0  0  0  0  0  0  0  0  0  0  0
   20.2660   -6.1330   72.2410 S   0  0  0  0  0  0  0  0  0  0  0  0
   18.7290   -5.8120   66.8360 C   0  0  0  0  0  0  0  0  0  0  0  0
   20.7210   -8.1890   73.6900 N   0  0  0  0  0  0  0  0  0  0  0  0
   18.2290   -8.3790   68.8590 C   0  0  1  0  0  0  0  0  0  0  0  0
   22.5090   -7.4970   72.3240 N   0  0  0  0  0  0  0  0  0  0  0  0
   18.9810   -9.0930   71.0610 C   0  0  0  0  0  0  0  0  0  0  0  0
   17.7520   -6.1320   69.1200 C   0  0  0  0  0  0  0  0  0  0  0  0
   18.5880   -7.7370   70.9550 C   0  0  0  0  0  0  0  0  0  0  0  0
   18.6210   -6.7600   72.1050 C   0  0  0  0  0  0  0  0  0  0  0  0
   21.2550   -7.3690   72.7790 C   0  0  0  0  0  0  0  0  0  0  0  0
   21.3010   -9.3400   74.3660 C   0  0  2  0  0  0  0  0  0  0  0  0
   22.1470   -9.0060   75.5860 C   0  0  0  0  0  0  0  0  0  0  0  0
   22.2680  -10.2460   76.4700 C   0  0  0  0  0  0  0  0  0  0  0  0
   22.8210  -11.4530   75.7100 C   0  0  0  0  0  0  0  0  0  0  0  0
   22.1440  -11.6820   74.3500 C   0  0  0  0  0  0  0  0  0  0  0  0
   21.9670  -10.4100   73.5160 C   0  0  0  0  0  0  0  0  0  0  0  0
   22.9540   -7.4320   70.9310 C   0  0  1  0  0  0  0  0  0  0  0  0
   21.8950   -7.6050   69.8450 C   0  0  0  0  0  0  0  0  0  0  0  0
   22.5520   -7.7520   68.4730 C   0  0  0  0  0  0  0  0  0  0  0  0
   23.5120   -6.6030   68.1570 C   0  0  0  0  0  0  0  0  0  0  0  0
   24.5160   -6.3620   69.2800 C   0  0  0  0  0  0  0  0  0  0  0  0
   23.8280   -6.2180   70.6370 C   0  0  0  0  0  0  0  0  0  0  0  0
   15.5643   -6.1471   67.9411 H   0  0  0  0  0  0  0  0  0  0  0  0
   16.2752   -5.3681   66.4870 H   0  0  0  0  0  0  0  0  0  0  0  0
   15.9394   -7.1327   66.4870 H   0  0  0  0  0  0  0  0  0  0  0  0
   17.0899   -8.4861   67.2838 H   0  0  0  0  0  0  0  0  0  0  0  0
   19.4373   -5.3252   67.5225 H   0  0  0  0  0  0  0  0  0  0  0  0
   19.2683   -6.5312   66.2020 H   0  0  0  0  0  0  0  0  0  0  0  0
   18.2509   -5.0508   66.2020 H   0  0  0  0  0  0  0  0  0  0  0  0
   20.4387   -7.5626   74.4574 H   0  0  0  0  0  0  0  0  0  0  0  0
   17.6971   -9.2644   68.4805 H   0  0  0  0  0  0  0  0  0  0  0  0
   23.0425   -6.7602   72.8071 H   0  0  0  0  0  0  0  0  0  0  0  0
   18.3241   -9.6130   71.7738 H   0  0  0  0  0  0  0  0  0  0  0  0
   20.0196   -9.1527   71.4185 H   0  0  0  0  0  0  0  0  0  0  0  0
   16.7735   -5.8286   69.5206 H   0  0  0  0  0  0  0  0  0  0  0  0
   18.3966   -5.2634   69.3202 H   0  0  0  0  0  0  0  0  0  0  0  0
   17.5508   -8.0193   71.1885 H   0  0  0  0  0  0  0  0  0  0  0  0
   17.9211   -5.9334   71.9128 H   0  0  0  0  0  0  0  0  0  0  0  0
   18.3238   -7.2591   73.0391 H   0  0  0  0  0  0  0  0  0  0  0  0
   20.8804   -8.0189   71.9744 H   0  0  0  0  0  0  0  0  0  0  0  0
   20.3725   -9.8178   74.7120 H   0  0  0  0  0  0  0  0  0  0  0  0
   23.1485   -8.6860   75.2625 H   0  0  0  0  0  0  0  0  0  0  0  0
   21.6708   -8.1931   76.1539 H   0  0  0  0  0  0  0  0  0  0  0  0
   22.9423  -10.0175   77.3085 H   0  0  0  0  0  0  0  0  0  0  0  0
   21.2591  -10.5057   76.8229 H   0  0  0  0  0  0  0  0  0  0  0  0
   23.8966  -11.2958   75.5417 H   0  0  0  0  0  0  0  0  0  0  0  0
   22.6213  -12.3427   76.3253 H   0  0  0  0  0  0  0  0  0  0  0  0
   22.7578  -12.3899   73.7737 H   0  0  0  0  0  0  0  0  0  0  0  0
   21.1348  -12.0662   74.5595 H   0  0  0  0  0  0  0  0  0  0  0  0
   21.3372  -10.6290   72.6412 H   0  0  0  0  0  0  0  0  0  0  0  0
   22.9504  -10.0520   73.1771 H   0  0  0  0  0  0  0  0  0  0  0  0
   23.5616   -8.3464   70.8631 H   0  0  0  0  0  0  0  0  0  0  0  0
   21.3005   -8.5053   70.0597 H   0  0  0  0  0  0  0  0  0  0  0  0
   21.2478   -6.7156   69.8353 H   0  0  0  0  0  0  0  0  0  0  0  0
   23.1138   -8.6975   68.4503 H   0  0  0  0  0  0  0  0  0  0  0  0
   21.7534   -7.7380   67.7167 H   0  0  0  0  0  0  0  0  0  0  0  0
   24.0627   -6.8453   67.2361 H   0  0  0  0  0  0  0  0  0  0  0  0
   22.9137   -5.6876   68.0383 H   0  0  0  0  0  0  0  0  0  0  0  0
   25.2128   -7.2121   69.3228 H   0  0  0  0  0  0  0  0  0  0  0  0
   25.0487   -5.4236   69.0661 H   0  0  0  0  0  0  0  0  0  0  0  0
   24.5934   -6.1258   71.4217 H   0  0  0  0  0  0  0  0  0  0  0  0
   23.1914   -5.3212   70.6167 H   0  0  0  0  0  0  0  0  0  0  0  0
  4  1  1  6
  4  2  1  0
  7  4  1  0
  9  5  1  0
  9  3  1  0
  9  2  1  0
 11  3  1  0
 12  5  1  0
 12  4  1  0
 13  5  1  0
 13 11  1  0
 14 13  1  0
 14  6  1  0
 15  8  1  0
 15  6  1  0
 15 10  1  0
 16  8  1  0
 17 16  1  0
 18 17  1  0
 19 18  1  0
 20 19  1  0
 21 16  1  0
 21 20  1  0
 22 10  1  0
 23 22  1  0
 24 23  1  0
 25 24  1  0
 26 25  1  0
 27 26  1  0
 27 22  1  0
  1 28  1  0
  1 29  1  0
  1 30  1  0
  2 31  1  0
  7 32  1  0
  7 33  1  0
  7 34  1  0
  8 35  1  0
  9 36  1  1
 10 37  1  0
 11 38  1  0
 11 39  1  0
 12 40  1  0
 12 41  1  0
 13 42  1  0
 14 43  1  0
 14 44  1  0
 15 45  1  0
 16 46  1  1
 17 47  1  0
 17 48  1  0
 18 49  1  0
 18 50  1  0
 19 51  1  0
 19 52  1  0
 20 53  1  0
 20 54  1  0
 21 55  1  0
 21 56  1  0
 22 57  1  1
 23 58  1  0
 23 59  1  0
 24 60  1  0
 24 61  1  0
 25 62  1  0
 25 63  1  0
 26 64  1  0
 26 65  1  0
 27 66  1  0
 27 67  1  0
M  END
$$$$
